<routes>
        <vType id="Bus" accel="0.8" decel="4.5" sigma="0.5" length="5" minGap="2.5" maxSpeed="16.67" guiShape="bus"/>

        <route id="right" edges="14342450 315218164#1 315218164#2 315218164#3 315218164#4 315218164#5 315218164#6 315218164#7 315218164#8 315218164#9 315218164#10 315218164#11" />

        <route id="left" edges="319655874#0 319655874#1 319655874#2 319655874#3 319655874#4 319655874#5 319655874#6 319655874#8 319655874#9 24252817#1" />

        <route id="up" edges="67701598#0 67701598#1 319655871#2 319655871#3 338413096" />

        <route id="down" edges="315557586#0 315557586#1 337605612 337605613 330154010#0 33783509#0 33783509#1 33783509#2" />
    <vehicle id="left_0" type="Bus" route="left" depart="0" color="1,0,0"/>
    <vehicle id="left_1" type="Bus" route="left" depart="2" color="1,0,0"/>
    <vehicle id="right_2" type="Bus" route="right" depart="3" color="1,0,0"/>
    <vehicle id="up_3" type="Bus" route="up" depart="4" color="1,0,0"/>
    <vehicle id="left_4" type="Bus" route="left" depart="10" color="1,0,0"/>
    <vehicle id="right_5" type="Bus" route="right" depart="11" color="1,0,0"/>
    <vehicle id="up_6" type="Bus" route="up" depart="16" color="1,0,0"/>
    <vehicle id="right_7" type="Bus" route="right" depart="22" color="1,0,0"/>
    <vehicle id="left_8" type="Bus" route="left" depart="22" color="1,0,0"/>
    <vehicle id="right_9" type="Bus" route="right" depart="25" color="1,0,0"/>
    <vehicle id="right_10" type="Bus" route="right" depart="31" color="1,0,0"/>
    <vehicle id="down_11" type="Bus" route="down" depart="31" color="1,0,0"/>
    <vehicle id="right_12" type="Bus" route="right" depart="34" color="1,0,0"/>
    <vehicle id="right_13" type="Bus" route="right" depart="40" color="1,0,0"/>
    <vehicle id="left_14" type="Bus" route="left" depart="41" color="1,0,0"/>
    <vehicle id="right_15" type="Bus" route="right" depart="44" color="1,0,0"/>
    <vehicle id="left_16" type="Bus" route="left" depart="49" color="1,0,0"/>
    <vehicle id="right_17" type="Bus" route="right" depart="56" color="1,0,0"/>
    <vehicle id="right_18" type="Bus" route="right" depart="63" color="1,0,0"/>
    <vehicle id="right_19" type="Bus" route="right" depart="64" color="1,0,0"/>
    <vehicle id="left_20" type="Bus" route="left" depart="67" color="1,0,0"/>
    <vehicle id="down_21" type="Bus" route="down" depart="72" color="1,0,0"/>
    <vehicle id="left_22" type="Bus" route="left" depart="74" color="1,0,0"/>
    <vehicle id="right_23" type="Bus" route="right" depart="81" color="1,0,0"/>
    <vehicle id="down_24" type="Bus" route="down" depart="85" color="1,0,0"/>
    <vehicle id="right_25" type="Bus" route="right" depart="92" color="1,0,0"/>
    <vehicle id="down_26" type="Bus" route="down" depart="98" color="1,0,0"/>
    <vehicle id="up_27" type="Bus" route="up" depart="103" color="1,0,0"/>
    <vehicle id="up_28" type="Bus" route="up" depart="106" color="1,0,0"/>
    <vehicle id="right_29" type="Bus" route="right" depart="115" color="1,0,0"/>
    <vehicle id="left_30" type="Bus" route="left" depart="117" color="1,0,0"/>
    <vehicle id="left_31" type="Bus" route="left" depart="120" color="1,0,0"/>
    <vehicle id="left_32" type="Bus" route="left" depart="123" color="1,0,0"/>
    <vehicle id="left_33" type="Bus" route="left" depart="125" color="1,0,0"/>
    <vehicle id="right_34" type="Bus" route="right" depart="126" color="1,0,0"/>
    <vehicle id="right_35" type="Bus" route="right" depart="127" color="1,0,0"/>
    <vehicle id="left_36" type="Bus" route="left" depart="129" color="1,0,0"/>
    <vehicle id="down_37" type="Bus" route="down" depart="129" color="1,0,0"/>
    <vehicle id="right_38" type="Bus" route="right" depart="132" color="1,0,0"/>
    <vehicle id="up_39" type="Bus" route="up" depart="135" color="1,0,0"/>
    <vehicle id="left_40" type="Bus" route="left" depart="137" color="1,0,0"/>
    <vehicle id="left_41" type="Bus" route="left" depart="147" color="1,0,0"/>
    <vehicle id="down_42" type="Bus" route="down" depart="149" color="1,0,0"/>
    <vehicle id="right_43" type="Bus" route="right" depart="150" color="1,0,0"/>
    <vehicle id="right_44" type="Bus" route="right" depart="152" color="1,0,0"/>
    <vehicle id="left_45" type="Bus" route="left" depart="159" color="1,0,0"/>
    <vehicle id="right_46" type="Bus" route="right" depart="164" color="1,0,0"/>
    <vehicle id="right_47" type="Bus" route="right" depart="171" color="1,0,0"/>
    <vehicle id="right_48" type="Bus" route="right" depart="179" color="1,0,0"/>
    <vehicle id="right_49" type="Bus" route="right" depart="180" color="1,0,0"/>
    <vehicle id="right_50" type="Bus" route="right" depart="182" color="1,0,0"/>
    <vehicle id="left_51" type="Bus" route="left" depart="184" color="1,0,0"/>
    <vehicle id="left_52" type="Bus" route="left" depart="204" color="1,0,0"/>
    <vehicle id="right_53" type="Bus" route="right" depart="213" color="1,0,0"/>
    <vehicle id="right_54" type="Bus" route="right" depart="216" color="1,0,0"/>
    <vehicle id="left_55" type="Bus" route="left" depart="218" color="1,0,0"/>
    <vehicle id="down_56" type="Bus" route="down" depart="220" color="1,0,0"/>
    <vehicle id="right_57" type="Bus" route="right" depart="227" color="1,0,0"/>
    <vehicle id="left_58" type="Bus" route="left" depart="232" color="1,0,0"/>
    <vehicle id="right_59" type="Bus" route="right" depart="239" color="1,0,0"/>
    <vehicle id="down_60" type="Bus" route="down" depart="241" color="1,0,0"/>
    <vehicle id="right_61" type="Bus" route="right" depart="245" color="1,0,0"/>
    <vehicle id="up_62" type="Bus" route="up" depart="248" color="1,0,0"/>
    <vehicle id="right_63" type="Bus" route="right" depart="250" color="1,0,0"/>
    <vehicle id="left_64" type="Bus" route="left" depart="253" color="1,0,0"/>
    <vehicle id="down_65" type="Bus" route="down" depart="256" color="1,0,0"/>
    <vehicle id="left_66" type="Bus" route="left" depart="258" color="1,0,0"/>
    <vehicle id="down_67" type="Bus" route="down" depart="258" color="1,0,0"/>
    <vehicle id="left_68" type="Bus" route="left" depart="262" color="1,0,0"/>
    <vehicle id="left_69" type="Bus" route="left" depart="265" color="1,0,0"/>
    <vehicle id="right_70" type="Bus" route="right" depart="266" color="1,0,0"/>
    <vehicle id="left_71" type="Bus" route="left" depart="268" color="1,0,0"/>
    <vehicle id="left_72" type="Bus" route="left" depart="271" color="1,0,0"/>
    <vehicle id="left_73" type="Bus" route="left" depart="273" color="1,0,0"/>
    <vehicle id="left_74" type="Bus" route="left" depart="281" color="1,0,0"/>
    <vehicle id="left_75" type="Bus" route="left" depart="283" color="1,0,0"/>
    <vehicle id="up_76" type="Bus" route="up" depart="284" color="1,0,0"/>
    <vehicle id="right_77" type="Bus" route="right" depart="287" color="1,0,0"/>
    <vehicle id="left_78" type="Bus" route="left" depart="287" color="1,0,0"/>
    <vehicle id="left_79" type="Bus" route="left" depart="291" color="1,0,0"/>
    <vehicle id="right_80" type="Bus" route="right" depart="292" color="1,0,0"/>
    <vehicle id="down_81" type="Bus" route="down" depart="293" color="1,0,0"/>
    <vehicle id="right_82" type="Bus" route="right" depart="296" color="1,0,0"/>
    <vehicle id="left_83" type="Bus" route="left" depart="296" color="1,0,0"/>
    <vehicle id="left_84" type="Bus" route="left" depart="298" color="1,0,0"/>
    <vehicle id="right_85" type="Bus" route="right" depart="309" color="1,0,0"/>
    <vehicle id="right_86" type="Bus" route="right" depart="310" color="1,0,0"/>
    <vehicle id="right_87" type="Bus" route="right" depart="311" color="1,0,0"/>
    <vehicle id="left_88" type="Bus" route="left" depart="315" color="1,0,0"/>
    <vehicle id="right_89" type="Bus" route="right" depart="320" color="1,0,0"/>
    <vehicle id="left_90" type="Bus" route="left" depart="320" color="1,0,0"/>
    <vehicle id="right_91" type="Bus" route="right" depart="329" color="1,0,0"/>
    <vehicle id="left_92" type="Bus" route="left" depart="343" color="1,0,0"/>
    <vehicle id="up_93" type="Bus" route="up" depart="344" color="1,0,0"/>
    <vehicle id="up_94" type="Bus" route="up" depart="347" color="1,0,0"/>
    <vehicle id="right_95" type="Bus" route="right" depart="348" color="1,0,0"/>
    <vehicle id="left_96" type="Bus" route="left" depart="350" color="1,0,0"/>
    <vehicle id="right_97" type="Bus" route="right" depart="352" color="1,0,0"/>
    <vehicle id="left_98" type="Bus" route="left" depart="354" color="1,0,0"/>
    <vehicle id="left_99" type="Bus" route="left" depart="357" color="1,0,0"/>
    <vehicle id="left_100" type="Bus" route="left" depart="359" color="1,0,0"/>
    <vehicle id="right_101" type="Bus" route="right" depart="363" color="1,0,0"/>
    <vehicle id="left_102" type="Bus" route="left" depart="369" color="1,0,0"/>
    <vehicle id="left_103" type="Bus" route="left" depart="372" color="1,0,0"/>
    <vehicle id="right_104" type="Bus" route="right" depart="374" color="1,0,0"/>
    <vehicle id="left_105" type="Bus" route="left" depart="376" color="1,0,0"/>
    <vehicle id="right_106" type="Bus" route="right" depart="389" color="1,0,0"/>
    <vehicle id="left_107" type="Bus" route="left" depart="392" color="1,0,0"/>
    <vehicle id="right_108" type="Bus" route="right" depart="402" color="1,0,0"/>
    <vehicle id="left_109" type="Bus" route="left" depart="402" color="1,0,0"/>
    <vehicle id="right_110" type="Bus" route="right" depart="406" color="1,0,0"/>
    <vehicle id="left_111" type="Bus" route="left" depart="406" color="1,0,0"/>
    <vehicle id="left_112" type="Bus" route="left" depart="414" color="1,0,0"/>
    <vehicle id="left_113" type="Bus" route="left" depart="430" color="1,0,0"/>
    <vehicle id="up_114" type="Bus" route="up" depart="433" color="1,0,0"/>
    <vehicle id="down_115" type="Bus" route="down" depart="434" color="1,0,0"/>
    <vehicle id="up_116" type="Bus" route="up" depart="451" color="1,0,0"/>
    <vehicle id="right_117" type="Bus" route="right" depart="459" color="1,0,0"/>
    <vehicle id="down_118" type="Bus" route="down" depart="468" color="1,0,0"/>
    <vehicle id="left_119" type="Bus" route="left" depart="469" color="1,0,0"/>
    <vehicle id="right_120" type="Bus" route="right" depart="477" color="1,0,0"/>
    <vehicle id="right_121" type="Bus" route="right" depart="481" color="1,0,0"/>
    <vehicle id="right_122" type="Bus" route="right" depart="483" color="1,0,0"/>
    <vehicle id="left_123" type="Bus" route="left" depart="484" color="1,0,0"/>
    <vehicle id="up_124" type="Bus" route="up" depart="484" color="1,0,0"/>
    <vehicle id="left_125" type="Bus" route="left" depart="490" color="1,0,0"/>
    <vehicle id="down_126" type="Bus" route="down" depart="490" color="1,0,0"/>
    <vehicle id="down_127" type="Bus" route="down" depart="494" color="1,0,0"/>
    <vehicle id="left_128" type="Bus" route="left" depart="495" color="1,0,0"/>
    <vehicle id="right_129" type="Bus" route="right" depart="496" color="1,0,0"/>
    <vehicle id="right_130" type="Bus" route="right" depart="501" color="1,0,0"/>
    <vehicle id="down_131" type="Bus" route="down" depart="512" color="1,0,0"/>
    <vehicle id="right_132" type="Bus" route="right" depart="517" color="1,0,0"/>
    <vehicle id="right_133" type="Bus" route="right" depart="528" color="1,0,0"/>
    <vehicle id="right_134" type="Bus" route="right" depart="530" color="1,0,0"/>
    <vehicle id="down_135" type="Bus" route="down" depart="530" color="1,0,0"/>
    <vehicle id="down_136" type="Bus" route="down" depart="531" color="1,0,0"/>
    <vehicle id="right_137" type="Bus" route="right" depart="533" color="1,0,0"/>
    <vehicle id="left_138" type="Bus" route="left" depart="537" color="1,0,0"/>
    <vehicle id="right_139" type="Bus" route="right" depart="538" color="1,0,0"/>
    <vehicle id="left_140" type="Bus" route="left" depart="538" color="1,0,0"/>
    <vehicle id="right_141" type="Bus" route="right" depart="540" color="1,0,0"/>
    <vehicle id="right_142" type="Bus" route="right" depart="542" color="1,0,0"/>
    <vehicle id="right_143" type="Bus" route="right" depart="543" color="1,0,0"/>
    <vehicle id="right_144" type="Bus" route="right" depart="545" color="1,0,0"/>
    <vehicle id="left_145" type="Bus" route="left" depart="548" color="1,0,0"/>
    <vehicle id="left_146" type="Bus" route="left" depart="550" color="1,0,0"/>
    <vehicle id="left_147" type="Bus" route="left" depart="555" color="1,0,0"/>
    <vehicle id="down_148" type="Bus" route="down" depart="557" color="1,0,0"/>
    <vehicle id="right_149" type="Bus" route="right" depart="558" color="1,0,0"/>
    <vehicle id="right_150" type="Bus" route="right" depart="562" color="1,0,0"/>
    <vehicle id="right_151" type="Bus" route="right" depart="563" color="1,0,0"/>
    <vehicle id="left_152" type="Bus" route="left" depart="576" color="1,0,0"/>
    <vehicle id="down_153" type="Bus" route="down" depart="582" color="1,0,0"/>
    <vehicle id="down_154" type="Bus" route="down" depart="585" color="1,0,0"/>
    <vehicle id="up_155" type="Bus" route="up" depart="593" color="1,0,0"/>
    <vehicle id="right_156" type="Bus" route="right" depart="596" color="1,0,0"/>
    <vehicle id="right_157" type="Bus" route="right" depart="601" color="1,0,0"/>
    <vehicle id="right_158" type="Bus" route="right" depart="606" color="1,0,0"/>
    <vehicle id="down_159" type="Bus" route="down" depart="606" color="1,0,0"/>
    <vehicle id="right_160" type="Bus" route="right" depart="609" color="1,0,0"/>
    <vehicle id="left_161" type="Bus" route="left" depart="609" color="1,0,0"/>
    <vehicle id="left_162" type="Bus" route="left" depart="613" color="1,0,0"/>
    <vehicle id="left_163" type="Bus" route="left" depart="622" color="1,0,0"/>
    <vehicle id="left_164" type="Bus" route="left" depart="627" color="1,0,0"/>
    <vehicle id="right_165" type="Bus" route="right" depart="629" color="1,0,0"/>
    <vehicle id="right_166" type="Bus" route="right" depart="634" color="1,0,0"/>
    <vehicle id="left_167" type="Bus" route="left" depart="634" color="1,0,0"/>
    <vehicle id="up_168" type="Bus" route="up" depart="635" color="1,0,0"/>
    <vehicle id="up_169" type="Bus" route="up" depart="640" color="1,0,0"/>
    <vehicle id="right_170" type="Bus" route="right" depart="642" color="1,0,0"/>
    <vehicle id="up_171" type="Bus" route="up" depart="646" color="1,0,0"/>
    <vehicle id="right_172" type="Bus" route="right" depart="649" color="1,0,0"/>
    <vehicle id="left_173" type="Bus" route="left" depart="651" color="1,0,0"/>
    <vehicle id="left_174" type="Bus" route="left" depart="659" color="1,0,0"/>
    <vehicle id="right_175" type="Bus" route="right" depart="660" color="1,0,0"/>
    <vehicle id="left_176" type="Bus" route="left" depart="660" color="1,0,0"/>
    <vehicle id="right_177" type="Bus" route="right" depart="662" color="1,0,0"/>
    <vehicle id="left_178" type="Bus" route="left" depart="665" color="1,0,0"/>
    <vehicle id="left_179" type="Bus" route="left" depart="666" color="1,0,0"/>
    <vehicle id="up_180" type="Bus" route="up" depart="671" color="1,0,0"/>
    <vehicle id="left_181" type="Bus" route="left" depart="673" color="1,0,0"/>
    <vehicle id="left_182" type="Bus" route="left" depart="676" color="1,0,0"/>
    <vehicle id="left_183" type="Bus" route="left" depart="680" color="1,0,0"/>
    <vehicle id="left_184" type="Bus" route="left" depart="682" color="1,0,0"/>
    <vehicle id="up_185" type="Bus" route="up" depart="683" color="1,0,0"/>
    <vehicle id="right_186" type="Bus" route="right" depart="687" color="1,0,0"/>
    <vehicle id="up_187" type="Bus" route="up" depart="688" color="1,0,0"/>
    <vehicle id="left_188" type="Bus" route="left" depart="693" color="1,0,0"/>
    <vehicle id="left_189" type="Bus" route="left" depart="694" color="1,0,0"/>
    <vehicle id="left_190" type="Bus" route="left" depart="697" color="1,0,0"/>
    <vehicle id="left_191" type="Bus" route="left" depart="704" color="1,0,0"/>
    <vehicle id="left_192" type="Bus" route="left" depart="706" color="1,0,0"/>
    <vehicle id="right_193" type="Bus" route="right" depart="709" color="1,0,0"/>
    <vehicle id="left_194" type="Bus" route="left" depart="709" color="1,0,0"/>
    <vehicle id="right_195" type="Bus" route="right" depart="711" color="1,0,0"/>
    <vehicle id="down_196" type="Bus" route="down" depart="712" color="1,0,0"/>
    <vehicle id="left_197" type="Bus" route="left" depart="714" color="1,0,0"/>
    <vehicle id="left_198" type="Bus" route="left" depart="721" color="1,0,0"/>
    <vehicle id="right_199" type="Bus" route="right" depart="724" color="1,0,0"/>
    <vehicle id="left_200" type="Bus" route="left" depart="727" color="1,0,0"/>
    <vehicle id="right_201" type="Bus" route="right" depart="730" color="1,0,0"/>
    <vehicle id="right_202" type="Bus" route="right" depart="731" color="1,0,0"/>
    <vehicle id="right_203" type="Bus" route="right" depart="733" color="1,0,0"/>
    <vehicle id="up_204" type="Bus" route="up" depart="741" color="1,0,0"/>
    <vehicle id="right_205" type="Bus" route="right" depart="745" color="1,0,0"/>
    <vehicle id="down_206" type="Bus" route="down" depart="747" color="1,0,0"/>
    <vehicle id="right_207" type="Bus" route="right" depart="751" color="1,0,0"/>
    <vehicle id="left_208" type="Bus" route="left" depart="752" color="1,0,0"/>
    <vehicle id="up_209" type="Bus" route="up" depart="754" color="1,0,0"/>
    <vehicle id="left_210" type="Bus" route="left" depart="758" color="1,0,0"/>
    <vehicle id="up_211" type="Bus" route="up" depart="760" color="1,0,0"/>
    <vehicle id="right_212" type="Bus" route="right" depart="763" color="1,0,0"/>
    <vehicle id="left_213" type="Bus" route="left" depart="766" color="1,0,0"/>
    <vehicle id="left_214" type="Bus" route="left" depart="782" color="1,0,0"/>
    <vehicle id="left_215" type="Bus" route="left" depart="785" color="1,0,0"/>
    <vehicle id="down_216" type="Bus" route="down" depart="792" color="1,0,0"/>
    <vehicle id="up_217" type="Bus" route="up" depart="795" color="1,0,0"/>
    <vehicle id="right_218" type="Bus" route="right" depart="801" color="1,0,0"/>
    <vehicle id="up_219" type="Bus" route="up" depart="801" color="1,0,0"/>
    <vehicle id="up_220" type="Bus" route="up" depart="802" color="1,0,0"/>
    <vehicle id="right_221" type="Bus" route="right" depart="814" color="1,0,0"/>
    <vehicle id="right_222" type="Bus" route="right" depart="823" color="1,0,0"/>
    <vehicle id="left_223" type="Bus" route="left" depart="828" color="1,0,0"/>
    <vehicle id="right_224" type="Bus" route="right" depart="830" color="1,0,0"/>
    <vehicle id="left_225" type="Bus" route="left" depart="832" color="1,0,0"/>
    <vehicle id="left_226" type="Bus" route="left" depart="841" color="1,0,0"/>
    <vehicle id="left_227" type="Bus" route="left" depart="842" color="1,0,0"/>
    <vehicle id="left_228" type="Bus" route="left" depart="843" color="1,0,0"/>
    <vehicle id="left_229" type="Bus" route="left" depart="850" color="1,0,0"/>
    <vehicle id="down_230" type="Bus" route="down" depart="851" color="1,0,0"/>
    <vehicle id="right_231" type="Bus" route="right" depart="853" color="1,0,0"/>
    <vehicle id="left_232" type="Bus" route="left" depart="855" color="1,0,0"/>
    <vehicle id="right_233" type="Bus" route="right" depart="857" color="1,0,0"/>
    <vehicle id="left_234" type="Bus" route="left" depart="865" color="1,0,0"/>
    <vehicle id="left_235" type="Bus" route="left" depart="867" color="1,0,0"/>
    <vehicle id="left_236" type="Bus" route="left" depart="874" color="1,0,0"/>
    <vehicle id="left_237" type="Bus" route="left" depart="875" color="1,0,0"/>
    <vehicle id="left_238" type="Bus" route="left" depart="879" color="1,0,0"/>
    <vehicle id="right_239" type="Bus" route="right" depart="886" color="1,0,0"/>
    <vehicle id="left_240" type="Bus" route="left" depart="892" color="1,0,0"/>
    <vehicle id="right_241" type="Bus" route="right" depart="906" color="1,0,0"/>
    <vehicle id="right_242" type="Bus" route="right" depart="909" color="1,0,0"/>
    <vehicle id="up_243" type="Bus" route="up" depart="913" color="1,0,0"/>
    <vehicle id="left_244" type="Bus" route="left" depart="924" color="1,0,0"/>
    <vehicle id="left_245" type="Bus" route="left" depart="925" color="1,0,0"/>
    <vehicle id="right_246" type="Bus" route="right" depart="928" color="1,0,0"/>
    <vehicle id="up_247" type="Bus" route="up" depart="934" color="1,0,0"/>
    <vehicle id="right_248" type="Bus" route="right" depart="935" color="1,0,0"/>
    <vehicle id="right_249" type="Bus" route="right" depart="939" color="1,0,0"/>
    <vehicle id="left_250" type="Bus" route="left" depart="939" color="1,0,0"/>
    <vehicle id="down_251" type="Bus" route="down" depart="941" color="1,0,0"/>
    <vehicle id="left_252" type="Bus" route="left" depart="950" color="1,0,0"/>
    <vehicle id="left_253" type="Bus" route="left" depart="956" color="1,0,0"/>
    <vehicle id="right_254" type="Bus" route="right" depart="961" color="1,0,0"/>
    <vehicle id="left_255" type="Bus" route="left" depart="966" color="1,0,0"/>
    <vehicle id="up_256" type="Bus" route="up" depart="966" color="1,0,0"/>
    <vehicle id="left_257" type="Bus" route="left" depart="967" color="1,0,0"/>
    <vehicle id="right_258" type="Bus" route="right" depart="976" color="1,0,0"/>
    <vehicle id="right_259" type="Bus" route="right" depart="978" color="1,0,0"/>
    <vehicle id="left_260" type="Bus" route="left" depart="988" color="1,0,0"/>
    <vehicle id="right_261" type="Bus" route="right" depart="990" color="1,0,0"/>
    <vehicle id="down_262" type="Bus" route="down" depart="991" color="1,0,0"/>
    <vehicle id="left_263" type="Bus" route="left" depart="999" color="1,0,0"/>
    <vehicle id="right_264" type="Bus" route="right" depart="1005" color="1,0,0"/>
    <vehicle id="left_265" type="Bus" route="left" depart="1008" color="1,0,0"/>
    <vehicle id="up_266" type="Bus" route="up" depart="1017" color="1,0,0"/>
    <vehicle id="right_267" type="Bus" route="right" depart="1018" color="1,0,0"/>
    <vehicle id="right_268" type="Bus" route="right" depart="1019" color="1,0,0"/>
    <vehicle id="left_269" type="Bus" route="left" depart="1025" color="1,0,0"/>
    <vehicle id="left_270" type="Bus" route="left" depart="1031" color="1,0,0"/>
    <vehicle id="down_271" type="Bus" route="down" depart="1035" color="1,0,0"/>
    <vehicle id="right_272" type="Bus" route="right" depart="1036" color="1,0,0"/>
    <vehicle id="right_273" type="Bus" route="right" depart="1038" color="1,0,0"/>
    <vehicle id="right_274" type="Bus" route="right" depart="1049" color="1,0,0"/>
    <vehicle id="right_275" type="Bus" route="right" depart="1052" color="1,0,0"/>
    <vehicle id="left_276" type="Bus" route="left" depart="1057" color="1,0,0"/>
    <vehicle id="right_277" type="Bus" route="right" depart="1065" color="1,0,0"/>
    <vehicle id="right_278" type="Bus" route="right" depart="1071" color="1,0,0"/>
    <vehicle id="up_279" type="Bus" route="up" depart="1074" color="1,0,0"/>
    <vehicle id="right_280" type="Bus" route="right" depart="1076" color="1,0,0"/>
    <vehicle id="down_281" type="Bus" route="down" depart="1077" color="1,0,0"/>
    <vehicle id="left_282" type="Bus" route="left" depart="1078" color="1,0,0"/>
    <vehicle id="right_283" type="Bus" route="right" depart="1081" color="1,0,0"/>
    <vehicle id="down_284" type="Bus" route="down" depart="1087" color="1,0,0"/>
    <vehicle id="up_285" type="Bus" route="up" depart="1088" color="1,0,0"/>
    <vehicle id="up_286" type="Bus" route="up" depart="1089" color="1,0,0"/>
    <vehicle id="up_287" type="Bus" route="up" depart="1090" color="1,0,0"/>
    <vehicle id="up_288" type="Bus" route="up" depart="1097" color="1,0,0"/>
    <vehicle id="right_289" type="Bus" route="right" depart="1098" color="1,0,0"/>
    <vehicle id="left_290" type="Bus" route="left" depart="1103" color="1,0,0"/>
    <vehicle id="left_291" type="Bus" route="left" depart="1106" color="1,0,0"/>
    <vehicle id="up_292" type="Bus" route="up" depart="1112" color="1,0,0"/>
    <vehicle id="right_293" type="Bus" route="right" depart="1113" color="1,0,0"/>
    <vehicle id="left_294" type="Bus" route="left" depart="1114" color="1,0,0"/>
    <vehicle id="right_295" type="Bus" route="right" depart="1116" color="1,0,0"/>
    <vehicle id="right_296" type="Bus" route="right" depart="1123" color="1,0,0"/>
    <vehicle id="left_297" type="Bus" route="left" depart="1124" color="1,0,0"/>
    <vehicle id="left_298" type="Bus" route="left" depart="1125" color="1,0,0"/>
    <vehicle id="left_299" type="Bus" route="left" depart="1129" color="1,0,0"/>
    <vehicle id="right_300" type="Bus" route="right" depart="1133" color="1,0,0"/>
    <vehicle id="left_301" type="Bus" route="left" depart="1134" color="1,0,0"/>
    <vehicle id="right_302" type="Bus" route="right" depart="1137" color="1,0,0"/>
    <vehicle id="right_303" type="Bus" route="right" depart="1138" color="1,0,0"/>
    <vehicle id="left_304" type="Bus" route="left" depart="1150" color="1,0,0"/>
    <vehicle id="left_305" type="Bus" route="left" depart="1152" color="1,0,0"/>
    <vehicle id="right_306" type="Bus" route="right" depart="1154" color="1,0,0"/>
    <vehicle id="right_307" type="Bus" route="right" depart="1158" color="1,0,0"/>
    <vehicle id="down_308" type="Bus" route="down" depart="1160" color="1,0,0"/>
    <vehicle id="left_309" type="Bus" route="left" depart="1165" color="1,0,0"/>
    <vehicle id="left_310" type="Bus" route="left" depart="1166" color="1,0,0"/>
    <vehicle id="left_311" type="Bus" route="left" depart="1169" color="1,0,0"/>
    <vehicle id="left_312" type="Bus" route="left" depart="1170" color="1,0,0"/>
    <vehicle id="up_313" type="Bus" route="up" depart="1171" color="1,0,0"/>
    <vehicle id="left_314" type="Bus" route="left" depart="1175" color="1,0,0"/>
    <vehicle id="down_315" type="Bus" route="down" depart="1176" color="1,0,0"/>
    <vehicle id="down_316" type="Bus" route="down" depart="1177" color="1,0,0"/>
    <vehicle id="right_317" type="Bus" route="right" depart="1180" color="1,0,0"/>
    <vehicle id="right_318" type="Bus" route="right" depart="1182" color="1,0,0"/>
    <vehicle id="down_319" type="Bus" route="down" depart="1182" color="1,0,0"/>
    <vehicle id="right_320" type="Bus" route="right" depart="1184" color="1,0,0"/>
    <vehicle id="down_321" type="Bus" route="down" depart="1187" color="1,0,0"/>
    <vehicle id="up_322" type="Bus" route="up" depart="1191" color="1,0,0"/>
    <vehicle id="left_323" type="Bus" route="left" depart="1193" color="1,0,0"/>
    <vehicle id="right_324" type="Bus" route="right" depart="1209" color="1,0,0"/>
    <vehicle id="down_325" type="Bus" route="down" depart="1209" color="1,0,0"/>
    <vehicle id="right_326" type="Bus" route="right" depart="1211" color="1,0,0"/>
    <vehicle id="left_327" type="Bus" route="left" depart="1213" color="1,0,0"/>
    <vehicle id="left_328" type="Bus" route="left" depart="1234" color="1,0,0"/>
    <vehicle id="left_329" type="Bus" route="left" depart="1238" color="1,0,0"/>
    <vehicle id="left_330" type="Bus" route="left" depart="1252" color="1,0,0"/>
    <vehicle id="down_331" type="Bus" route="down" depart="1252" color="1,0,0"/>
    <vehicle id="right_332" type="Bus" route="right" depart="1255" color="1,0,0"/>
    <vehicle id="up_333" type="Bus" route="up" depart="1256" color="1,0,0"/>
    <vehicle id="right_334" type="Bus" route="right" depart="1258" color="1,0,0"/>
    <vehicle id="right_335" type="Bus" route="right" depart="1265" color="1,0,0"/>
    <vehicle id="up_336" type="Bus" route="up" depart="1267" color="1,0,0"/>
    <vehicle id="right_337" type="Bus" route="right" depart="1271" color="1,0,0"/>
    <vehicle id="down_338" type="Bus" route="down" depart="1275" color="1,0,0"/>
    <vehicle id="right_339" type="Bus" route="right" depart="1277" color="1,0,0"/>
    <vehicle id="up_340" type="Bus" route="up" depart="1280" color="1,0,0"/>
    <vehicle id="left_341" type="Bus" route="left" depart="1283" color="1,0,0"/>
    <vehicle id="left_342" type="Bus" route="left" depart="1285" color="1,0,0"/>
    <vehicle id="right_343" type="Bus" route="right" depart="1294" color="1,0,0"/>
    <vehicle id="right_344" type="Bus" route="right" depart="1304" color="1,0,0"/>
    <vehicle id="right_345" type="Bus" route="right" depart="1307" color="1,0,0"/>
    <vehicle id="right_346" type="Bus" route="right" depart="1311" color="1,0,0"/>
    <vehicle id="left_347" type="Bus" route="left" depart="1311" color="1,0,0"/>
    <vehicle id="right_348" type="Bus" route="right" depart="1313" color="1,0,0"/>
    <vehicle id="right_349" type="Bus" route="right" depart="1319" color="1,0,0"/>
    <vehicle id="left_350" type="Bus" route="left" depart="1320" color="1,0,0"/>
    <vehicle id="right_351" type="Bus" route="right" depart="1329" color="1,0,0"/>
    <vehicle id="right_352" type="Bus" route="right" depart="1330" color="1,0,0"/>
    <vehicle id="right_353" type="Bus" route="right" depart="1331" color="1,0,0"/>
    <vehicle id="right_354" type="Bus" route="right" depart="1335" color="1,0,0"/>
    <vehicle id="right_355" type="Bus" route="right" depart="1337" color="1,0,0"/>
    <vehicle id="up_356" type="Bus" route="up" depart="1338" color="1,0,0"/>
    <vehicle id="right_357" type="Bus" route="right" depart="1342" color="1,0,0"/>
    <vehicle id="up_358" type="Bus" route="up" depart="1348" color="1,0,0"/>
    <vehicle id="left_359" type="Bus" route="left" depart="1350" color="1,0,0"/>
    <vehicle id="right_360" type="Bus" route="right" depart="1356" color="1,0,0"/>
    <vehicle id="left_361" type="Bus" route="left" depart="1356" color="1,0,0"/>
    <vehicle id="up_362" type="Bus" route="up" depart="1357" color="1,0,0"/>
    <vehicle id="right_363" type="Bus" route="right" depart="1358" color="1,0,0"/>
    <vehicle id="right_364" type="Bus" route="right" depart="1375" color="1,0,0"/>