<?xml version="1.0" encoding="UTF-8"?>
<!-- generated on 2019-05-17 09:20:59.194616 by $Id$ via randomTrips.py
  options: 
-->
<routes xmlns:xsi="http://www.w3.org/2001/XMLSchema-instance" xsi:noNamespaceSchemaLocation="http://sumo.dlr.de/xsd/routes_file.xsd">
    <vType id="veh_passenger" vClass="passenger">
    </vType>
    <trip id="veh0" depart="0.00" departLane="best" departSpeed="max" from="319802412" to="-129822384#0" type="veh_passenger"/>
    <trip id="veh1" depart="3.71" departLane="best" from="24252105#0" to="24252105#2" type="veh_passenger"/>
    <trip id="veh2" depart="7.43" departLane="best" departSpeed="max" from="33783335#0" to="330154009#2" type="veh_passenger"/>
    <trip id="veh3" depart="11.14" departLane="best" from="33783846#5" to="19070397#1" type="veh_passenger"/>
    <trip id="veh4" depart="14.86" departLane="best" departSpeed="max" from="315557586#0" to="-129822384#2" type="veh_passenger"/>
    <trip id="veh5" depart="18.57" departLane="best" departSpeed="max" from="23843773#0" to="315557586#1" type="veh_passenger"/>
    <trip id="veh6" depart="22.29" departLane="best" departSpeed="max" from="-23804813#2" to="24252105#2" type="veh_passenger"/>
    <trip id="veh7" depart="26.00" departLane="best" departSpeed="max" from="319802412" to="319655874#9" type="veh_passenger"/>
    <trip id="veh8" depart="29.72" departLane="best" departSpeed="max" from="23843773#0" to="319802403#5" type="veh_passenger"/>
    <trip id="veh9" depart="33.43" departLane="best" from="33783509#1" to="-129822384#0" type="veh_passenger"/>
    <trip id="veh10" depart="37.15" departLane="best" departSpeed="max" from="24252819#0" to="23804816#1" type="veh_passenger"/>
    <trip id="veh11" depart="40.86" departLane="best" departSpeed="max" from="67701598#0" to="24252817#1" type="veh_passenger"/>
    <trip id="veh12" depart="44.58" departLane="best" departSpeed="max" from="-432966955" to="19070397#1" type="veh_passenger"/>
    <trip id="veh13" depart="48.29" departLane="best" departSpeed="max" from="33783846#0" to="319802403#5" type="veh_passenger"/>
    <trip id="veh14" depart="52.01" departLane="best" departSpeed="max" from="319655874#0" to="432966955" type="veh_passenger"/>
    <trip id="veh15" depart="55.72" departLane="best" departSpeed="max" from="33783846#0" to="330154009#1" type="veh_passenger"/>
    <trip id="veh16" depart="59.44" departLane="best" departSpeed="max" from="33783846#0" to="319802403#5" type="veh_passenger"/>
    <trip id="veh17" depart="63.15" departLane="best" departSpeed="max" from="330172468#0" to="-684280772#0" type="veh_passenger"/>
    <trip id="veh18" depart="66.87" departLane="best" departSpeed="max" from="23843773#0" to="24252809#1" type="veh_passenger"/>
    <trip id="veh19" depart="70.58" departLane="best" departSpeed="max" from="-432966955" to="24252105#2" type="veh_passenger"/>
    <trip id="veh20" depart="74.30" departLane="best" from="330154009#6" to="24252809#0" type="veh_passenger"/>
    <trip id="veh21" depart="78.01" departLane="best" departSpeed="max" from="319802412" to="24252817#1" type="veh_passenger"/>
    <trip id="veh22" depart="81.73" departLane="best" from="315218164#1" to="24252105#2" type="veh_passenger"/>
    <trip id="veh23" depart="85.44" departLane="best" from="23843773#4" to="338413096" type="veh_passenger"/>
    <trip id="veh24" depart="89.16" departLane="best" departSpeed="max" from="319802412" to="319802403#5" type="veh_passenger"/>
    <trip id="veh25" depart="92.87" departLane="best" departSpeed="max" from="14342450" to="33783509#0" type="veh_passenger"/>
    <trip id="veh26" depart="96.59" departLane="best" departSpeed="max" from="67701598#0" to="330154009#10" type="veh_passenger"/>
    <trip id="veh27" depart="100.30" departLane="best" departSpeed="max" from="319655874#0" to="330154009#4" type="veh_passenger"/>
    <trip id="veh28" depart="104.01" departLane="best" departSpeed="max" from="33783846#0" to="33783509#2" type="veh_passenger"/>
    <trip id="veh29" depart="107.73" departLane="best" departSpeed="max" from="23843773#0" to="-129822384#4" type="veh_passenger"/>
    <trip id="veh30" depart="111.44" departLane="best" departSpeed="max" from="24252819#0" to="24252105#2" type="veh_passenger"/>
    <trip id="veh31" depart="115.16" departLane="best" departSpeed="max" from="23843773#0" to="338413096" type="veh_passenger"/>
    <trip id="veh32" depart="118.87" departLane="best" departSpeed="max" from="33783846#0" to="24252809#1" type="veh_passenger"/>
    <trip id="veh33" depart="122.59" departLane="best" departSpeed="max" from="319802412" to="24252819#2" type="veh_passenger"/>
    <trip id="veh34" depart="126.30" departLane="best" departSpeed="max" from="670322549#0" to="315218164#11" type="veh_passenger"/>
    <trip id="veh35" depart="130.02" departLane="best" from="23843773#4" to="24252105#2" type="veh_passenger"/>
    <trip id="veh36" depart="133.73" departLane="best" from="319655874#1" to="24252105#2" type="veh_passenger"/>
    <trip id="veh37" depart="137.45" departLane="best" from="319655874#8" to="338413096" type="veh_passenger"/>
    <trip id="veh38" depart="141.16" departLane="best" from="315218164#8" to="24252105#2" type="veh_passenger"/>
    <trip id="veh39" depart="144.88" departLane="best" from="684280772#0" to="319655871#2" type="veh_passenger"/>
    <trip id="veh40" depart="148.59" departLane="best" departSpeed="max" from="-432966955" to="-684280772#1" type="veh_passenger"/>
    <trip id="veh41" depart="152.31" departLane="best" departSpeed="max" from="129822384#0" to="330154009#10" type="veh_passenger"/>
    <trip id="veh42" depart="156.02" departLane="best" from="33783335#1" to="315218164#11" type="veh_passenger"/>
    <trip id="veh43" depart="159.74" departLane="best" departSpeed="max" from="-23804816#1" to="24252817#1" type="veh_passenger"/>
    <trip id="veh44" depart="163.45" departLane="best" from="67701598#1" to="319655874#4" type="veh_passenger"/>
    <trip id="veh45" depart="167.17" departLane="best" departSpeed="max" from="67701598#0" to="33783846#3" type="veh_passenger"/>
    <trip id="veh46" depart="170.88" departLane="best" departSpeed="max" from="-23804813#2" to="33783335#2" type="veh_passenger"/>
    <trip id="veh47" depart="174.60" departLane="best" departSpeed="max" from="129822384#0" to="315218164#11" type="veh_passenger"/>
    <trip id="veh48" depart="178.31" departLane="best" departSpeed="max" from="33783846#0" to="24252105#2" type="veh_passenger"/>
    <trip id="veh49" depart="182.03" departLane="best" from="319655871#3" to="23843773#4" type="veh_passenger"/>
    <trip id="veh50" depart="185.74" departLane="best" departSpeed="max" from="670322549#0" to="33783846#5" type="veh_passenger"/>
    <trip id="veh51" depart="189.46" departLane="best" departSpeed="max" from="24252819#0" to="330154009#10" type="veh_passenger"/>
    <trip id="veh52" depart="193.17" departLane="best" departSpeed="max" from="319802412" to="23804816#1" type="veh_passenger"/>
    <trip id="veh53" depart="196.89" departLane="best" departSpeed="max" from="33783335#0" to="319655874#6" type="veh_passenger"/>
    <trip id="veh54" depart="200.60" departLane="best" departSpeed="max" from="33783335#0" to="319655874#4" type="veh_passenger"/>
    <trip id="veh55" depart="204.31" departLane="best" from="-129822384#1" to="24252809#1" type="veh_passenger"/>
    <trip id="veh56" depart="208.03" departLane="best" departSpeed="max" from="-23804813#2" to="338413096" type="veh_passenger"/>
    <trip id="veh57" depart="211.74" departLane="best" from="33783846#1" to="33783718#2" type="veh_passenger"/>
    <trip id="veh58" depart="215.46" departLane="best" departSpeed="max" from="24252819#0" to="19070397#0" type="veh_passenger"/>
    <trip id="veh59" depart="219.17" departLane="best" from="33783846#1" to="338413096" type="veh_passenger"/>
    <trip id="veh60" depart="222.89" departLane="best" departSpeed="max" from="-432966955" to="315218164#5" type="veh_passenger"/>
    <trip id="veh61" depart="226.60" departLane="best" from="-330172468#0" to="33783509#2" type="veh_passenger"/>
    <trip id="veh62" depart="230.32" departLane="best" departSpeed="max" from="33783335#0" to="23804813#2" type="veh_passenger"/>
    <trip id="veh63" depart="234.03" departLane="best" departSpeed="max" from="315557586#0" to="319802403#0" type="veh_passenger"/>
    <trip id="veh64" depart="237.75" departLane="best" from="23843773#4" to="33783846#6" type="veh_passenger"/>
    <trip id="veh65" depart="241.46" departLane="best" departSpeed="max" from="319655874#0" to="33783509#0" type="veh_passenger"/>
    <trip id="veh66" depart="245.18" departLane="best" from="23804813#1" to="24252809#1" type="veh_passenger"/>
    <trip id="veh67" depart="248.89" departLane="best" from="67701598#1" to="330154009#10" type="veh_passenger"/>
    <trip id="veh68" depart="252.61" departLane="best" departSpeed="max" from="315557586#0" to="319655871#3" type="veh_passenger"/>
    <trip id="veh69" depart="256.32" departLane="best" departSpeed="max" from="129822384#0" to="24252105#2" type="veh_passenger"/>
    <trip id="veh70" depart="260.04" departLane="best" departSpeed="max" from="24252819#0" to="319802403#5" type="veh_passenger"/>
    <trip id="veh71" depart="263.75" departLane="best" departSpeed="max" from="23843773#0" to="24252105#2" type="veh_passenger"/>
    <trip id="veh72" depart="267.47" departLane="best" from="-330172468#1" to="330154009#10" type="veh_passenger"/>
    <trip id="veh73" depart="271.18" departLane="best" departSpeed="max" from="23843773#0" to="338413096" type="veh_passenger"/>
    <trip id="veh74" depart="274.90" departLane="best" departSpeed="max" from="33783846#0" to="19070397#1" type="veh_passenger"/>
    <trip id="veh75" depart="278.61" departLane="best" departSpeed="max" from="23843773#0" to="330154009#10" type="veh_passenger"/>
    <trip id="veh76" depart="282.33" departLane="best" from="670322549#2" to="319802403#5" type="veh_passenger"/>
    <trip id="veh77" depart="286.04" departLane="best" departSpeed="max" from="315557586#0" to="33783509#2" type="veh_passenger"/>
    <trip id="veh78" depart="289.76" departLane="best" from="33783509#1" to="24252105#1" type="veh_passenger"/>
    <trip id="veh79" depart="293.47" departLane="best" departSpeed="max" from="-432966955" to="315218164#11" type="veh_passenger"/>
    <trip id="veh80" depart="297.19" departLane="best" departSpeed="max" from="315557586#0" to="315218164#11" type="veh_passenger"/>
    <trip id="veh81" depart="300.90" departLane="best" from="337605612" to="330154009#10" type="veh_passenger"/>
    <trip id="veh82" depart="304.61" departLane="best" departSpeed="max" from="67701598#0" to="19070397#1" type="veh_passenger"/>
    <trip id="veh83" depart="308.33" departLane="best" from="315218164#9" to="24252817#1" type="veh_passenger"/>
    <trip id="veh84" depart="312.04" departLane="best" departSpeed="max" from="33783846#0" to="24252105#2" type="veh_passenger"/>
    <trip id="veh85" depart="315.76" departLane="best" departSpeed="max" from="14342450" to="315218164#11" type="veh_passenger"/>
    <trip id="veh86" depart="319.47" departLane="best" departSpeed="max" from="315557586#0" to="24252809#0" type="veh_passenger"/>
    <trip id="veh87" depart="323.19" departLane="best" departSpeed="max" from="23843773#0" to="338413096" type="veh_passenger"/>
    <trip id="veh88" depart="326.90" departLane="best" departSpeed="max" from="315557586#0" to="33783846#3" type="veh_passenger"/>
    <trip id="veh89" depart="330.62" departLane="best" departSpeed="max" from="319655874#0" to="129822384#1" type="veh_passenger"/>
    <trip id="veh90" depart="334.33" departLane="best" from="684280772#1" to="33783718#2" type="veh_passenger"/>
    <trip id="veh91" depart="338.05" departLane="best" departSpeed="max" from="67701598#0" to="338413096" type="veh_passenger"/>
    <trip id="veh92" depart="341.76" departLane="best" departSpeed="max" from="33783846#0" to="23804816#1" type="veh_passenger"/>
    <trip id="veh93" depart="345.48" departLane="best" from="315218164#9" to="19070397#1" type="veh_passenger"/>
    <trip id="veh94" depart="349.19" departLane="best" from="315218164#3" to="432966955" type="veh_passenger"/>
    <trip id="veh95" depart="352.91" departLane="best" from="23843773#4" to="33783509#2" type="veh_passenger"/>
    <trip id="veh96" depart="356.62" departLane="best" departSpeed="max" from="315557586#0" to="315218164#11" type="veh_passenger"/>
    <trip id="veh97" depart="360.34" departLane="best" departSpeed="max" from="319655874#0" to="33783335#1" type="veh_passenger"/>
    <trip id="veh98" depart="364.05" departLane="best" departSpeed="max" from="319655874#0" to="33783509#2" type="veh_passenger"/>
    <trip id="veh99" depart="367.77" departLane="best" departSpeed="max" from="-23804816#1" to="319802403#5" type="veh_passenger"/>
    <trip id="veh100" depart="371.48" departLane="best" departSpeed="max" from="14342450" to="432966955" type="veh_passenger"/>
    <trip id="veh101" depart="375.20" departLane="best" from="33783846#4" to="24252105#2" type="veh_passenger"/>
    <trip id="veh102" depart="378.91" departLane="best" departSpeed="max" from="315557586#0" to="319802403#5" type="veh_passenger"/>
    <trip id="veh103" depart="382.63" departLane="best" departSpeed="max" from="319655874#0" to="338413096" type="veh_passenger"/>
    <trip id="veh104" depart="386.34" departLane="best" departSpeed="max" from="23843773#0" to="24252819#2" type="veh_passenger"/>
    <trip id="veh105" depart="390.06" departLane="best" from="330154009#3" to="24252809#1" type="veh_passenger"/>
    <trip id="veh106" depart="393.77" departLane="best" departSpeed="max" from="24252819#0" to="33783509#2" type="veh_passenger"/>
    <trip id="veh107" depart="397.49" departLane="best" from="-330172468#1" to="315218164#11" type="veh_passenger"/>
    <trip id="veh108" depart="401.20" departLane="best" from="684280772#1" to="67701598#1" type="veh_passenger"/>
    <trip id="veh109" depart="404.91" departLane="best" departSpeed="max" from="-432966955" to="24252105#2" type="veh_passenger"/>
    <trip id="veh110" depart="408.63" departLane="best" from="23843773#4" to="338413096" type="veh_passenger"/>
    <trip id="veh111" depart="412.34" departLane="best" from="33783846#2" to="338413096" type="veh_passenger"/>
    <trip id="veh112" depart="416.06" departLane="best" from="315218164#1" to="23804816#1" type="veh_passenger"/>
    <trip id="veh113" depart="419.77" departLane="best" departSpeed="max" from="33783846#0" to="330172469" type="veh_passenger"/>
    <trip id="veh114" depart="423.49" departLane="best" departSpeed="max" from="319802412" to="432966955" type="veh_passenger"/>
    <trip id="veh115" depart="427.20" departLane="best" departSpeed="max" from="319802412" to="-129822384#0" type="veh_passenger"/>
    <trip id="veh117" depart="434.63" departLane="best" from="330154009#1" to="338413096" type="veh_passenger"/>
    <trip id="veh118" depart="438.35" departLane="best" departSpeed="max" from="129822384#0" to="319802403#1" type="veh_passenger"/>
    <trip id="veh119" depart="442.06" departLane="best" from="24252105#0" to="319802403#5" type="veh_passenger"/>
    <trip id="veh120" depart="445.78" departLane="best" departSpeed="max" from="330172468#0" to="24252105#2" type="veh_passenger"/>
    <trip id="veh121" depart="449.49" departLane="best" departSpeed="max" from="319802412" to="24252105#2" type="veh_passenger"/>
    <trip id="veh122" depart="453.21" departLane="best" departSpeed="max" from="33783846#0" to="19070397#1" type="veh_passenger"/>
    <trip id="veh123" depart="456.92" departLane="best" departSpeed="max" from="315557586#0" to="24252809#0" type="veh_passenger"/>
    <trip id="veh124" depart="460.64" departLane="best" from="-129822384#2" to="33783509#2" type="veh_passenger"/>
    <trip id="veh125" depart="464.35" departLane="best" departSpeed="max" from="319802412" to="24252105#2" type="veh_passenger"/>
    <trip id="veh126" depart="468.07" departLane="best" departSpeed="max" from="33783335#0" to="319802403#1" type="veh_passenger"/>
    <trip id="veh127" depart="471.78" departLane="best" departSpeed="max" from="315557586#0" to="-129822384#0" type="veh_passenger"/>
    <trip id="veh128" depart="475.50" departLane="best" from="435707312#0" to="319655874#9" type="veh_passenger"/>
    <trip id="veh129" depart="479.21" departLane="best" departSpeed="max" from="33783846#0" to="319802403#5" type="veh_passenger"/>
    <trip id="veh130" depart="482.93" departLane="best" departSpeed="max" from="14342450" to="23804813#2" type="veh_passenger"/>
    <trip id="veh131" depart="486.64" departLane="best" departSpeed="max" from="24252819#0" to="338413096" type="veh_passenger"/>
    <trip id="veh132" depart="490.36" departLane="best" from="33783846#6" to="24252105#2" type="veh_passenger"/>
    <trip id="veh133" depart="494.07" departLane="best" departSpeed="max" from="23843773#0" to="19070397#1" type="veh_passenger"/>
    <trip id="veh134" depart="497.79" departLane="best" departSpeed="max" from="315557586#0" to="330154009#10" type="veh_passenger"/>
    <trip id="veh135" depart="501.50" departLane="best" departSpeed="max" from="14342450" to="338413096" type="veh_passenger"/>
    <trip id="veh136" depart="505.21" departLane="best" departSpeed="max" from="33783846#0" to="432966955" type="veh_passenger"/>
    <trip id="veh138" depart="512.64" departLane="best" departSpeed="max" from="-23804813#2" to="33783509#2" type="veh_passenger"/>
    <trip id="veh139" depart="516.36" departLane="best" departSpeed="max" from="24252819#0" to="338413096" type="veh_passenger"/>
    <trip id="veh141" depart="523.79" departLane="best" departSpeed="max" from="33783335#0" to="19070397#1" type="veh_passenger"/>
    <trip id="veh142" depart="527.50" departLane="best" departSpeed="max" from="33783846#0" to="33783846#2" type="veh_passenger"/>
    <trip id="veh143" depart="531.22" departLane="best" departSpeed="max" from="23843773#0" to="33783718#2" type="veh_passenger"/>
    <trip id="veh144" depart="534.93" departLane="best" departSpeed="max" from="315557586#0" to="24252809#1" type="veh_passenger"/>
    <trip id="veh145" depart="538.65" departLane="best" from="33783335#2" to="24252105#2" type="veh_passenger"/>
    <trip id="veh146" depart="542.36" departLane="best" departSpeed="max" from="-23804813#2" to="24252105#1" type="veh_passenger"/>
    <trip id="veh147" depart="546.08" departLane="best" departSpeed="max" from="24252819#0" to="33783846#4" type="veh_passenger"/>
    <trip id="veh148" depart="549.79" departLane="best" departSpeed="max" from="67701598#0" to="24252809#1" type="veh_passenger"/>
    <trip id="veh149" depart="553.51" departLane="best" departSpeed="max" from="319802412" to="24252820" type="veh_passenger"/>
    <trip id="veh150" depart="557.22" departLane="best" departSpeed="max" from="67701598#0" to="319655874#5" type="veh_passenger"/>
    <trip id="veh151" depart="560.94" departLane="best" departSpeed="max" from="67701598#0" to="23804813#1" type="veh_passenger"/>
    <trip id="veh152" depart="564.65" departLane="best" departSpeed="max" from="67701598#0" to="23843773#4" type="veh_passenger"/>
    <trip id="veh153" depart="568.37" departLane="best" departSpeed="max" from="67701598#0" to="24252105#2" type="veh_passenger"/>
    <trip id="veh154" depart="572.08" departLane="best" departSpeed="max" from="129822384#0" to="315218164#11" type="veh_passenger"/>
    <trip id="veh155" depart="575.80" departLane="best" from="337605612" to="24252809#1" type="veh_passenger"/>
    <trip id="veh156" depart="579.51" departLane="best" departSpeed="max" from="319802412" to="319655871#2" type="veh_passenger"/>
    <trip id="veh157" depart="583.23" departLane="best" from="315218164#4" to="319802403#5" type="veh_passenger"/>
    <trip id="veh158" depart="586.94" departLane="best" departSpeed="max" from="23843773#0" to="337605612" type="veh_passenger"/>
    <trip id="veh159" depart="590.66" departLane="best" from="-129822384#1" to="338413096" type="veh_passenger"/>
    <trip id="veh160" depart="594.37" departLane="best" departSpeed="max" from="319655874#0" to="33783335#2" type="veh_passenger"/>
    <trip id="veh161" depart="598.09" departLane="best" departSpeed="max" from="33783335#0" to="330154009#10" type="veh_passenger"/>
    <trip id="veh162" depart="601.80" departLane="best" from="24252822" to="19070397#1" type="veh_passenger"/>
    <trip id="veh163" depart="605.51" departLane="best" from="330154009#1" to="24252809#1" type="veh_passenger"/>
    <trip id="veh164" depart="609.23" departLane="best" from="315218164#9" to="24252809#1" type="veh_passenger"/>
    <trip id="veh165" depart="612.94" departLane="best" departSpeed="max" from="129822384#0" to="315218164#11" type="veh_passenger"/>
    <trip id="veh166" depart="616.66" departLane="best" departSpeed="max" from="67701598#0" to="330154009#2" type="veh_passenger"/>
    <trip id="veh167" depart="620.37" departLane="best" from="426673053" to="319802403#5" type="veh_passenger"/>
    <trip id="veh168" depart="624.09" departLane="best" departSpeed="max" from="24252819#0" to="319802403#0" type="veh_passenger"/>
    <trip id="veh169" depart="627.80" departLane="best" from="-129822384#1" to="24252809#1" type="veh_passenger"/>
    <trip id="veh170" depart="631.52" departLane="best" departSpeed="max" from="315557586#0" to="319802403#5" type="veh_passenger"/>
    <trip id="veh171" depart="635.23" departLane="best" departSpeed="max" from="319802412" to="315218164#11" type="veh_passenger"/>
    <trip id="veh172" depart="638.95" departLane="best" from="33783335#2" to="23804816#1" type="veh_passenger"/>
    <trip id="veh173" depart="642.66" departLane="best" departSpeed="max" from="319802412" to="24252817#1" type="veh_passenger"/>
    <trip id="veh174" depart="646.38" departLane="best" from="330154009#4" to="24252105#2" type="veh_passenger"/>
    <trip id="veh175" depart="650.09" departLane="best" from="19070397#0" to="-129822384#0" type="veh_passenger"/>
    <trip id="veh176" depart="653.81" departLane="best" departSpeed="max" from="23843773#0" to="315218164#2" type="veh_passenger"/>
    <trip id="veh177" depart="657.52" departLane="best" departSpeed="max" from="33783846#0" to="19070397#1" type="veh_passenger"/>
    <trip id="veh178" depart="661.24" departLane="best" departSpeed="max" from="315557586#0" to="330154009#10" type="veh_passenger"/>
    <trip id="veh179" depart="664.95" departLane="best" departSpeed="max" from="14342450" to="330154010#0" type="veh_passenger"/>
    <trip id="veh180" depart="668.67" departLane="best" from="319655871#2" to="24252105#2" type="veh_passenger"/>
    <trip id="veh181" depart="672.38" departLane="best" departSpeed="max" from="319802412" to="-129822384#0" type="veh_passenger"/>
    <trip id="veh182" depart="676.10" departLane="best" departSpeed="max" from="33783335#0" to="33783509#2" type="veh_passenger"/>
    <trip id="veh183" depart="679.81" departLane="best" departSpeed="max" from="129822384#0" to="315218164#11" type="veh_passenger"/>
    <trip id="veh184" depart="683.53" departLane="best" departSpeed="max" from="14342450" to="426673053" type="veh_passenger"/>
    <trip id="veh185" depart="687.24" departLane="best" departSpeed="max" from="319655874#0" to="129822384#1" type="veh_passenger"/>
    <trip id="veh186" depart="690.96" departLane="best" departSpeed="max" from="23843773#0" to="33783718#2" type="veh_passenger"/>
    <trip id="veh187" depart="694.67" departLane="best" departSpeed="max" from="315557586#0" to="33783718#2" type="veh_passenger"/>
    <trip id="veh188" depart="698.39" departLane="best" from="330154009#2" to="435707312#0" type="veh_passenger"/>
    <trip id="veh189" depart="702.10" departLane="best" from="319802403#1" to="338413096" type="veh_passenger"/>
    <trip id="veh190" depart="705.81" departLane="best" from="33783846#4" to="319802403#5" type="veh_passenger"/>
    <trip id="veh191" depart="709.53" departLane="best" departSpeed="max" from="33783846#0" to="319802403#0" type="veh_passenger"/>
    <trip id="veh192" depart="713.24" departLane="best" from="33783846#6" to="33783509#2" type="veh_passenger"/>
    <trip id="veh193" depart="716.96" departLane="best" departSpeed="max" from="23843773#0" to="330154009#10" type="veh_passenger"/>
    <trip id="veh194" depart="720.67" departLane="best" departSpeed="max" from="33783335#0" to="319655874#1" type="veh_passenger"/>
    <trip id="veh195" depart="724.39" departLane="best" departSpeed="max" from="319802412" to="24252105#2" type="veh_passenger"/>
    <trip id="veh196" depart="728.10" departLane="best" departSpeed="max" from="-432966955" to="24252809#1" type="veh_passenger"/>
    <trip id="veh197" depart="731.82" departLane="best" from="23843773#5" to="24252809#1" type="veh_passenger"/>
    <trip id="veh198" depart="735.53" departLane="best" departSpeed="max" from="319655874#0" to="23804813#2" type="veh_passenger"/>
    <trip id="veh199" depart="739.25" departLane="best" departSpeed="max" from="23843773#0" to="330154009#7" type="veh_passenger"/>
    <trip id="veh200" depart="742.96" departLane="best" departSpeed="max" from="330172468#0" to="19070397#1" type="veh_passenger"/>
    <trip id="veh201" depart="746.68" departLane="best" departSpeed="max" from="315557586#0" to="319655874#8" type="veh_passenger"/>
    <trip id="veh202" depart="750.39" departLane="best" from="319655874#8" to="330154009#7" type="veh_passenger"/>
    <trip id="veh203" depart="754.11" departLane="best" departSpeed="max" from="33783846#0" to="33783509#2" type="veh_passenger"/>
    <trip id="veh204" depart="757.82" departLane="best" from="315218164#3" to="-129822384#0" type="veh_passenger"/>
    <trip id="veh205" depart="761.54" departLane="best" from="24252819#2" to="33783509#2" type="veh_passenger"/>
    <trip id="veh206" depart="765.25" departLane="best" departSpeed="max" from="33783846#0" to="338413096" type="veh_passenger"/>
    <trip id="veh207" depart="768.97" departLane="best" departSpeed="max" from="315557586#0" to="33783509#2" type="veh_passenger"/>
    <trip id="veh208" depart="772.68" departLane="best" departSpeed="max" from="319655874#0" to="319802403#5" type="veh_passenger"/>
    <trip id="veh209" depart="776.40" departLane="best" departSpeed="max" from="23843773#0" to="24252105#2" type="veh_passenger"/>
    <trip id="veh210" depart="780.11" departLane="best" departSpeed="max" from="315557586#0" to="-129822384#2" type="veh_passenger"/>
    <trip id="veh211" depart="783.83" departLane="best" departSpeed="max" from="24252819#0" to="330154009#3" type="veh_passenger"/>
    <trip id="veh212" depart="787.54" departLane="best" departSpeed="max" from="315557586#0" to="23804816#1" type="veh_passenger"/>
    <trip id="veh213" depart="791.26" departLane="best" departSpeed="max" from="315557586#0" to="23804813#2" type="veh_passenger"/>
    <trip id="veh214" depart="794.97" departLane="best" departSpeed="max" from="319802412" to="-129822384#0" type="veh_passenger"/>
    <trip id="veh215" depart="798.69" departLane="best" from="315218164#7" to="319802403#5" type="veh_passenger"/>
    <trip id="veh216" depart="802.40" departLane="best" departSpeed="max" from="-23804813#2" to="330154009#10" type="veh_passenger"/>
    <trip id="veh217" depart="806.11" departLane="best" from="129822384#1" to="315218164#11" type="veh_passenger"/>
    <trip id="veh218" depart="809.83" departLane="best" departSpeed="max" from="-23804816#1" to="24252817#1" type="veh_passenger"/>
    <trip id="veh219" depart="813.54" departLane="best" departSpeed="max" from="23843773#0" to="24252809#1" type="veh_passenger"/>
    <trip id="veh220" depart="817.26" departLane="best" departSpeed="max" from="33783335#0" to="24252817#1" type="veh_passenger"/>
    <trip id="veh221" depart="820.97" departLane="best" departSpeed="max" from="33783335#0" to="33783718#2" type="veh_passenger"/>
    <trip id="veh222" depart="824.69" departLane="best" departSpeed="max" from="23843773#0" to="19070397#1" type="veh_passenger"/>
    <trip id="veh223" depart="828.40" departLane="best" departSpeed="max" from="-23804813#2" to="319655874#6" type="veh_passenger"/>
    <trip id="veh224" depart="832.12" departLane="best" from="684280772#1" to="24252817#1" type="veh_passenger"/>
    <trip id="veh225" depart="835.83" departLane="best" departSpeed="max" from="67701598#0" to="24252105#2" type="veh_passenger"/>
    <trip id="veh226" depart="839.55" departLane="best" departSpeed="max" from="129822384#0" to="330154009#10" type="veh_passenger"/>
    <trip id="veh227" depart="843.26" departLane="best" from="319655874#1" to="24252105#2" type="veh_passenger"/>
    <trip id="veh228" depart="846.98" departLane="best" departSpeed="max" from="330172468#0" to="33783509#2" type="veh_passenger"/>
    <trip id="veh229" depart="850.69" departLane="best" departSpeed="max" from="33783335#0" to="23804813#1" type="veh_passenger"/>
    <trip id="veh230" depart="854.41" departLane="best" from="33783824#1" to="432966955" type="veh_passenger"/>
    <trip id="veh231" depart="858.12" departLane="best" departSpeed="max" from="24252819#0" to="330154009#2" type="veh_passenger"/>
    <trip id="veh232" depart="861.84" departLane="best" departSpeed="max" from="67701598#0" to="24252819#2" type="veh_passenger"/>
    <trip id="veh233" depart="865.55" departLane="best" departSpeed="max" from="330172468#0" to="19070397#1" type="veh_passenger"/>
    <trip id="veh234" depart="869.27" departLane="best" from="330154010#0" to="330154009#10" type="veh_passenger"/>
    <trip id="veh235" depart="872.98" departLane="best" from="319655874#2" to="33783509#2" type="veh_passenger"/>
    <trip id="veh236" depart="876.70" departLane="best" departSpeed="max" from="33783846#0" to="319802403#5" type="veh_passenger"/>
    <trip id="veh237" depart="880.41" departLane="best" departSpeed="max" from="129822384#0" to="432966955" type="veh_passenger"/>