<?xml version="1.0" encoding="UTF-8"?>

<!-- generated on 05/17/19 09:20:58 by Eclipse SUMO polyconvert Version 1.1.0
<configuration xmlns:xsi="http://www.w3.org/2001/XMLSchema-instance" xsi:noNamespaceSchemaLocation="http://sumo.dlr.de/xsd/polyconvertConfiguration.xsd">

    <input>
        <net-file value="osm.net.xml"/>
        <osm-files value="osm_bbox.osm.xml"/>
        <osm.keep-full-type value="true"/>
        <type-file value="D:\Programas\Sumo\data\typemap\osmPolyconvert.typ.xml"/>
    </input>

    <output>
        <output-file value="osm.poly.xml"/>
    </output>

    <processing>
        <poi-layer-offset value="5"/>
    </processing>

    <report>
        <verbose value="true"/>
    </report>

</configuration>
-->

<additional xmlns:xsi="http://www.w3.org/2001/XMLSchema-instance" xsi:noNamespaceSchemaLocation="http://sumo.dlr.de/xsd/additional_file.xsd">
    <location netOffset="-277861.59,1341354.50" convBoundary="0.00,-0.00,1299.56,1519.57" origBoundary="-77.041094,-12.126376,-77.029172,-12.112668" projParameter="+proj=utm +zone=18 +ellps=WGS84 +datum=WGS84 +units=m +no_defs"/>

    <poly id="129822337" type="leisure.park" color="207,245,201" fill="1" layer="-2.00" shape="415.108935,1119.834051 434.098374,1119.765595 438.296139,1116.068053 437.819446,1096.789383 435.542332,1094.072538 415.300844,1094.131643 415.108935,1119.834051"/>
    <poly id="154964541" type="amenity.university" color="237,199,199" fill="1" layer="-1.00" shape="1057.598240,710.033722 1056.636651,738.275240 1090.879278,745.589630 1090.462491,753.309823 1126.030126,755.223302 1125.832234,761.329649 1139.856907,762.662257 1140.105824,754.088820 1158.950284,754.439328 1161.350122,724.581991 1174.879969,725.103166 1175.157720,721.431690 1176.702502,701.128053 1178.222956,681.167247 1162.686138,679.668486 1163.796670,666.509535 1138.858051,662.827378 1140.893451,642.438872 1130.720147,641.511136 1132.349579,620.079507 1122.569107,616.111845 1123.336693,591.985030 1135.672338,592.032615 1125.798360,571.378399 1107.211175,539.417364 1076.725845,536.390920 1076.851785,547.257585 1049.300747,546.421687 1049.346731,553.403980 1034.348324,552.716887 1032.671837,608.228059 1037.374910,608.296285 1057.286573,608.610563 1057.255958,618.568742 1056.896138,636.181377 1002.934137,627.602476 1001.603824,676.101086 1030.404917,681.615706 1028.685936,704.828123 1057.598240,710.033722"/>
    <poly id="182975879" type="amenity.embassy" color="237,199,199" fill="1" layer="-1.00" shape="332.027127,920.841372 336.835354,925.790124 427.826743,925.827946 432.957438,921.130466 432.395513,828.700876 428.235662,824.409812 336.344705,825.316802 331.720945,829.199248 332.027127,920.841372"/>
    <poly id="183109959" type="building.yes" color="255,230,230" fill="1" layer="-1.00" shape="431.198926,684.217083 406.330001,684.319029 406.446657,659.954908 431.335023,660.162929 431.198926,684.217083"/>
    <poly id="183109959#1" type="tourism.hotel" color="207,245,201" fill="1" layer="-2.00" shape="431.198926,684.217083 406.330001,684.319029 406.446657,659.954908 431.335023,660.162929 431.198926,684.217083"/>
    <poly id="183111783" type="amenity.casino" color="237,199,199" fill="1" layer="-1.00" shape="489.525919,790.665747 489.609351,779.490790 489.765377,760.050870 514.501474,760.246606 514.251155,790.861398 489.525919,790.665747"/>
    <poly id="183111783#1" type="building.yes" color="255,230,230" fill="1" layer="-1.00" shape="489.525919,790.665747 489.609351,779.490790 489.765377,760.050870 514.501474,760.246606 514.251155,790.861398 489.525919,790.665747"/>
    <poly id="183111783#2" type="tourism.hotel" color="207,245,201" fill="1" layer="-2.00" shape="489.525919,790.665747 489.609351,779.490790 489.765377,760.050870 514.501474,760.246606 514.251155,790.861398 489.525919,790.665747"/>
    <poly id="183111784" type="amenity.bank" color="237,199,199" fill="1" layer="-1.00" shape="470.385925,790.511779 489.525919,790.665747 489.609351,779.490790 470.480334,779.325838 470.385925,790.511779"/>
    <poly id="183111784#1" type="building.yes" color="255,230,230" fill="1" layer="-1.00" shape="470.385925,790.511779 489.525919,790.665747 489.609351,779.490790 470.480334,779.325838 470.385925,790.511779"/>
    <poly id="183111785" type="building.yes" color="255,230,230" fill="1" layer="-1.00" shape="534.235325,791.696599 561.783202,791.537071 561.474037,739.595998 533.926290,739.744453 534.235325,791.696599"/>
    <poly id="183111785#1" type="shop.supermarket" color="237,199,255" fill="1" layer="-1.00" shape="534.235325,791.696599 561.783202,791.537071 561.474037,739.595998 533.926290,739.744453 534.235325,791.696599"/>
    <poly id="183114329" type="leisure.park" color="207,245,201" fill="1" layer="-2.00" shape="466.309935,815.820041 567.401968,816.264856 568.586409,813.662373 569.193817,811.055584 568.340164,808.725579 566.881593,807.209863 465.622975,807.206394 463.552529,808.894935 462.958891,811.114553 463.457529,814.327107 466.309935,815.820041"/>
    <poly id="183125671" type="leisure.park" color="207,245,201" fill="1" layer="-2.00" shape="581.448886,816.081999 678.376257,815.787202 681.111976,813.948702 681.611738,811.175136 680.443332,808.710008 678.727503,806.650199 581.091075,807.127804 579.270388,808.906735 578.520453,811.645239 579.391753,814.528622 581.448886,816.081999"/>
    <poly id="183125672" type="leisure.park" color="207,245,201" fill="1" layer="-2.00" shape="696.563224,806.495550 984.006081,805.097375 985.445870,807.675157 985.634599,810.110841 985.135361,812.818022 983.681988,814.986981 697.197375,816.359122 694.774357,814.227650 694.087555,811.423103 695.032461,808.818830 696.563224,806.495550"/>
    <poly id="183129206" type="leisure.park" color="207,245,201" fill="1" layer="-2.00" shape="1182.972989,815.364364 1283.696503,815.527379 1285.435992,814.411701 1286.117653,812.059953 1284.713629,809.061990 1282.674847,806.501901 1182.936661,805.615928 1181.461366,807.806861 1180.907050,810.602152 1181.278410,813.371137 1182.972989,815.364364"/>
    <poly id="183129207" type="leisure.park" color="207,245,201" fill="1" layer="-2.00" shape="1001.664852,805.306367 1164.087872,804.380217 1165.831534,807.093028 1166.755678,810.198075 1165.776342,813.045527 1163.334043,814.963704 1002.124410,815.235004 1000.071875,813.062061 999.307021,810.500372 1000.201665,807.331410 1001.664852,805.306367"/>
    <poly id="184362718" type="building.office" color="255,230,230" fill="1" layer="-1.00" shape="774.996292,789.531513 792.220155,789.659934 793.984661,783.731232 794.654901,778.535720 794.894100,772.739490 794.569052,766.684559 794.024937,760.805034 792.771575,755.130454 775.253774,754.999839 774.996292,789.531513"/>
    <poly id="184362719" type="building.office" color="255,230,230" fill="1" layer="-1.00" shape="774.122991,789.834819 746.418357,789.119245 746.631672,780.954929 746.724142,777.315262 757.381416,777.593903 757.730751,764.329675 746.354997,764.034611 746.600650,754.454226 774.468562,755.171022 774.210381,764.972610 765.937120,764.756011 765.586139,778.241524 774.414578,778.473327 774.122991,789.834819"/>
    <poly id="332748261" type="building.yes" color="255,230,230" fill="1" layer="-1.00" shape="968.850284,919.063594 981.849384,919.226811 982.128287,897.862569 973.756187,897.755947 974.165929,864.674949 972.336844,864.661324 972.470891,852.513062 968.736675,852.463115 969.006251,826.506867 959.305825,826.401407 950.297052,838.682722 950.124212,847.267797 959.476001,847.403857 959.293041,860.270973 966.924705,860.383150 966.392990,898.143694 969.125569,898.186179 968.850284,919.063594"/>
    <poly id="332748264" type="building.yes" color="255,230,230" fill="1" layer="-1.00" shape="1019.384388,920.159199 1049.116394,920.590840 1049.496247,894.436258 1019.764185,894.015677 1019.384388,920.159199"/>
    <poly id="332748265" type="building.yes" color="255,230,230" fill="1" layer="-1.00" shape="930.157764,884.972071 930.406794,828.166717 896.894624,828.016588 896.636223,861.231507 896.644601,877.640823 896.634643,884.821872 930.157764,884.972071"/>
    <poly id="332748265#1" type="tourism.hotel" color="207,245,201" fill="1" layer="-2.00" shape="930.157764,884.972071 930.406794,828.166717 896.894624,828.016588 896.636223,861.231507 896.644601,877.640823 896.634643,884.821872 930.157764,884.972071"/>
    <poly id="332748267" type="building.yes" color="255,230,230" fill="1" layer="-1.00" shape="987.714445,884.626299 998.862585,884.786789 999.095074,868.191174 987.957827,868.030764 987.714445,884.626299"/>
    <poly id="332748269" type="building.yes" color="255,230,230" fill="1" layer="-1.00" shape="845.940023,915.492202 858.318381,915.672977 858.722072,887.803485 846.343643,887.633773 845.940023,915.492202"/>
    <poly id="332748271" type="building.apartments" color="255,230,230" fill="1" layer="-1.00" shape="1049.393168,824.936884 1034.337961,824.548144 1033.522335,860.967708 1048.926287,861.314783 1049.393168,824.936884"/>
    <poly id="332748273" type="building.yes" color="255,230,230" fill="1" layer="-1.00" shape="907.670234,917.623024 907.582244,922.125784 930.552759,922.562487 931.176749,889.958869 901.293320,889.393197 901.182651,895.478070 894.247936,895.348941 893.822568,917.364932 907.670234,917.623024"/>
    <poly id="332748275" type="building.yes" color="255,230,230" fill="1" layer="-1.00" shape="848.925407,856.781923 871.431183,856.750491 871.823764,843.519788 871.926665,825.329849 848.942444,825.280257 848.925407,856.781923"/>
    <poly id="332748277" type="building.yes" color="255,230,230" fill="1" layer="-1.00" shape="873.431730,922.878213 890.861615,923.129813 891.410331,886.022211 873.980468,885.770608 873.431730,922.878213"/>
    <poly id="332748278" type="building.yes" color="255,230,230" fill="1" layer="-1.00" shape="871.823764,843.519788 875.733581,843.382953 892.533928,843.364311 892.362570,825.448952 871.926665,825.329849 871.823764,843.519788"/>
    <poly id="332748279" type="building.yes" color="255,230,230" fill="1" layer="-1.00" shape="988.782038,865.547301 998.874093,865.699926 998.990585,857.368925 988.898451,857.227364 988.782038,865.547301"/>
    <poly id="332748280" type="building.yes" color="255,230,230" fill="1" layer="-1.00" shape="1002.616696,848.544015 1019.467268,849.089984 1019.925561,829.951125 1003.238229,829.417435 1002.616696,848.544015"/>
    <poly id="332748280#1" type="shop.travel_agency" color="237,199,255" fill="1" layer="-1.00" shape="1002.616696,848.544015 1019.467268,849.089984 1019.925561,829.951125 1003.238229,829.417435 1002.616696,848.544015"/>
    <poly id="332748282" type="building.yes" color="255,230,230" fill="1" layer="-1.00" shape="1008.127361,919.997908 1019.384388,920.159199 1019.764185,894.015677 1019.788586,892.201215 1008.531570,892.039923 1008.127361,919.997908"/>
    <poly id="332748282#1" type="tourism.hotel" color="207,245,201" fill="1" layer="-2.00" shape="1008.127361,919.997908 1019.384388,920.159199 1019.764185,894.015677 1019.788586,892.201215 1008.531570,892.039923 1008.127361,919.997908"/>
    <poly id="332748284" type="building.yes" color="255,230,230" fill="1" layer="-1.00" shape="833.889140,856.769432 848.925407,856.781923 848.942444,825.280257 833.906193,825.267763 833.889140,856.769432"/>
    <poly id="332748284#1" type="tourism.hotel" color="207,245,201" fill="1" layer="-2.00" shape="833.889140,856.769432 848.925407,856.781923 848.942444,825.280257 833.906193,825.267763 833.889140,856.769432"/>
    <poly id="332748287" type="building.yes" color="255,230,230" fill="1" layer="-1.00" shape="1049.496247,894.436258 1049.716925,879.422839 1033.419289,879.190825 1019.886973,878.990461 1019.788586,892.201215 1019.764185,894.015677 1049.496247,894.436258"/>
    <poly id="332748289" type="building.yes" color="255,230,230" fill="1" layer="-1.00" shape="1033.522335,860.967708 1019.185100,860.661765 1018.847487,869.444779 1033.555639,869.653900 1033.419289,879.190825 1049.716925,879.422839 1049.982200,861.344776 1048.926287,861.314783 1033.522335,860.967708"/>
    <poly id="361995976" type="amenity.restaurant" color="237,199,199" fill="1" layer="-1.00" shape="1138.829041,870.028296 1165.306468,870.324954 1165.818216,824.973788 1155.333991,824.851493 1119.515470,824.452086 1119.387082,835.847968 1139.223336,836.073085 1138.829041,870.028296"/>
    <poly id="361996067" type="amenity.restaurant" color="237,199,199" fill="1" layer="-1.00" shape="1065.218869,980.671397 1088.725697,980.735757 1088.836210,938.103552 1071.187020,938.060670 1065.310495,943.505103 1065.218869,980.671397"/>
    <poly id="361996067#1" type="building.yes" color="255,230,230" fill="1" layer="-1.00" shape="1065.218869,980.671397 1088.725697,980.735757 1088.836210,938.103552 1071.187020,938.060670 1065.310495,943.505103 1065.218869,980.671397"/>
    <poly id="396490262" type="building.yes" color="255,230,230" fill="1" layer="-1.00" shape="1035.705725,680.371660 1037.074460,664.713960 1070.424532,667.595783 1069.841120,674.296765 1162.176688,682.287073 1162.570558,684.956643 1161.538317,691.986229 1160.974199,696.098168 1142.487479,694.499985 1136.692045,760.724471 1126.953619,759.877431 1127.572807,752.756251 1095.452256,749.972183 1096.095122,742.596686 1125.832734,745.174911 1130.615457,690.671669 1060.172332,684.570437 1060.863043,676.619921 1041.701727,674.961324 1041.178844,680.843955 1035.705725,680.371660"/>
    <poly id="401831639" type="building.apartments" color="255,230,230" fill="1" layer="-1.00" shape="1184.612101,1036.961971 1184.576797,1012.441923 1191.763011,1012.429007 1191.769102,1017.463575 1200.163907,1017.448585 1200.193049,1036.945128 1184.612101,1036.961971"/>
    <poly id="401831644" type="building.yes" color="255,230,230" fill="1" layer="-1.00" shape="1116.116593,970.959129 1116.211174,961.178470 1121.981435,961.232487 1122.015712,958.090314 1116.267227,958.036459 1116.415442,942.513521 1134.608013,942.693199 1134.507589,953.259420 1129.325252,953.209782 1129.269563,959.228667 1134.528113,959.278873 1134.418056,971.139615 1116.116593,970.959129"/>
    <poly id="401831646" type="building.yes" color="255,230,230" fill="1" layer="-1.00" shape="974.890640,1034.880626 974.921204,1029.315210 974.720266,1027.056474 986.541919,1027.432209 987.154866,1007.995748 1009.067459,1008.678993 1008.214070,1035.549271 974.890640,1034.880626"/>
    <poly id="406014267" type="amenity.parking" color="184,184,179" fill="1" layer="-1.00" shape="1002.937576,654.910674 1003.551747,628.005413 1054.063950,636.359452 1050.832077,662.426408 1002.937576,654.910674"/>
    <poly id="406014275" type="leisure.park" color="207,245,201" fill="1" layer="-2.00" shape="1052.371568,663.312001 1054.409243,641.164189 1062.221482,641.875200 1112.870427,646.490217 1114.905121,646.671340 1114.064239,655.782550 1135.770949,657.758805 1133.757171,679.630167 1072.292914,674.027336 1073.099004,665.203553 1052.371568,663.312001"/>
    <poly id="406014277" type="building.yes" color="255,230,230" fill="1" layer="-1.00" shape="1137.237959,677.155416 1138.540274,664.562200 1161.659541,666.925157 1160.357154,679.529436 1137.237959,677.155416"/>
    <poly id="406014279" type="building.yes" color="255,230,230" fill="1" layer="-1.00" shape="1141.093728,660.874472 1143.396106,639.724476 1149.553799,640.378887 1148.934845,646.006308 1155.647299,646.731237 1156.418412,639.677577 1162.108279,640.284243 1165.339425,640.629178 1164.591489,647.494906 1167.572392,647.815848 1168.320491,640.927991 1181.310315,642.319275 1178.845001,664.884362 1166.497108,663.553181 1167.536992,654.034052 1163.751003,653.629663 1162.733634,663.049376 1153.399307,662.039375 1154.393175,652.851850 1151.172998,652.495931 1150.156119,661.849258 1141.093728,660.874472"/>
    <poly id="406036438" type="building.yes" color="255,230,230" fill="1" layer="-1.00" shape="1193.186743,671.884534 1194.060949,650.978404 1195.636712,649.916838 1197.073838,649.927534 1198.394103,651.010655 1217.217338,674.685759 1217.442614,676.601661 1216.349618,678.629466 1193.186743,671.884534"/>
    <poly id="406036444" type="building.yes" color="255,230,230" fill="1" layer="-1.00" shape="1188.719870,754.185115 1204.706237,755.266735 1206.872500,723.139362 1204.977471,718.821019 1206.874606,706.763346 1196.174078,706.451346 1195.473905,720.067011 1192.562984,723.508656 1188.719870,754.185115"/>
    <poly id="406036445" type="building.yes" color="255,230,230" fill="1" layer="-1.00" shape="1182.355724,836.858846 1182.250777,827.552495 1193.628508,827.581845 1193.583067,841.003214 1189.412620,841.049632 1189.368192,836.778255 1182.355724,836.858846"/>
    <poly id="406036446" type="building.yes" color="255,230,230" fill="1" layer="-1.00" shape="1193.556737,846.004346 1217.660252,844.878055 1213.935130,827.511662 1193.628508,827.581845 1193.583067,841.003214 1193.556737,846.004346"/>
    <poly id="406036448" type="building.hotel" color="255,230,230" fill="1" layer="-1.00" shape="1182.517103,886.862269 1196.575959,886.535362 1195.988703,861.568609 1181.929942,861.884451 1182.517103,886.862269"/>
    <poly id="426059889" type="leisure.park" color="207,245,201" fill="1" layer="-2.00" shape="430.631570,817.047392 430.123796,806.310614 335.207265,807.051152 156.476942,807.463586 155.246911,814.701932 289.295223,815.416220 430.631570,817.047392"/>
    <poly id="426059910" type="leisure.park" color="207,245,201" fill="1" layer="-2.00" shape="455.105226,794.071239 443.943804,794.231323 442.531145,694.713819 453.692530,694.553742 455.105226,794.071239"/>
    <poly id="432966414" type="building.yes" color="255,230,230" fill="1" layer="-1.00" shape="364.268592,836.048161 392.239784,862.315014 399.910763,854.250642 382.795107,838.167169 390.136816,830.454419 388.114915,828.558278 386.249341,830.513902 384.162610,828.550887 382.779802,830.012195 379.190132,826.643772 377.884196,828.017135 374.727049,825.050279 364.268592,836.048161"/>
    <poly id="432966415" type="building.yes" color="255,230,230" fill="1" layer="-1.00" shape="369.047942,874.014470 383.695824,858.975979 388.610504,865.706973 375.388486,879.350870 369.047942,874.014470"/>
    <poly id="432966477" type="building.yes" color="255,230,230" fill="1" layer="-1.00" shape="627.918739,848.218271 675.508836,848.418389 675.582579,829.774550 627.992512,829.574428 627.918739,848.218271"/>
    <poly id="432966648" type="building.yes" color="255,230,230" fill="1" layer="-1.00" shape="698.442040,713.719161 709.490579,714.089261 710.211133,693.392174 699.151797,693.010927 698.442040,713.719161"/>
    <poly id="432966649" type="building.yes" color="255,230,230" fill="1" layer="-1.00" shape="747.017282,717.566906 765.232681,717.592095 765.251916,710.632407 762.050947,710.619602 762.060199,704.998695 766.807338,705.000900 766.820888,695.883512 745.252111,695.844378 745.249122,702.084968 750.769265,702.092941 750.754556,711.365230 747.020023,711.359509 747.017282,717.566906"/>
    <poly id="432966650" type="amenity.place_of_worship" color="237,199,199" fill="1" layer="-1.00" shape="978.103034,719.101256 986.779600,719.254413 987.242178,692.237372 978.565537,692.095279 978.103034,719.101256"/>
    <poly id="432966650#1" type="building.yes" color="255,230,230" fill="1" layer="-1.00" shape="978.103034,719.101256 986.779600,719.254413 987.242178,692.237372 978.565537,692.095279 978.103034,719.101256"/>
    <poly id="432966651" type="landuse.churchyard" color="194,194,130" fill="1" layer="-3.00" shape="955.779464,732.688613 987.283311,736.408760 988.674853,675.307683 985.835317,657.472039 954.865216,658.115425 951.177965,683.913434 956.715339,684.530067 955.779464,732.688613"/>
    <poly id="432966652" type="amenity.restaurant" color="237,199,199" fill="1" layer="-1.00" shape="1003.955403,776.986223 1007.308798,777.000136 1007.293808,780.474403 1011.855703,780.497317 1011.884611,773.692620 1022.902884,773.741492 1022.981041,755.938654 1004.047491,755.852953 1003.955403,776.986223"/>
    <poly id="432966652#1" type="building.yes" color="255,230,230" fill="1" layer="-1.00" shape="1003.955403,776.986223 1007.308798,777.000136 1007.293808,780.474403 1011.855703,780.497317 1011.884611,773.692620 1022.902884,773.741492 1022.981041,755.938654 1004.047491,755.852953 1003.955403,776.986223"/>
    <poly id="432966945" type="building.yes" color="255,230,230" fill="1" layer="-1.00" shape="404.765300,917.146798 427.785846,918.181772 428.546169,903.847295 404.870734,903.028728 404.765300,917.146798"/>
    <poly id="432966946" type="amenity.parking" color="184,184,179" fill="1" layer="-1.00" shape="359.741506,921.734423 395.041906,921.566546 394.293598,906.590099 359.429066,905.256396 359.741506,921.734423"/>
    <poly id="432966948" type="landuse.grass" color="194,194,130" fill="1" layer="-3.00" shape="337.055147,874.505770 337.384290,830.447636 359.767293,830.825080 367.423277,843.717598 344.590836,874.351830 337.055147,874.505770"/>
    <poly id="432966949" type="landuse.grass" color="194,194,130" fill="1" layer="-3.00" shape="392.002409,867.856774 409.116393,881.251447 425.966876,874.528088 426.512333,829.188059 396.385502,827.679531 389.006836,835.967382 405.454207,854.059680 392.002409,867.856774"/>
    <poly id="432966950" type="landuse.grass" color="194,194,130" fill="1" layer="-3.00" shape="361.824848,902.286759 361.957494,884.528523 378.313595,884.230225 387.664288,900.554457 361.824848,902.286759"/>
    <poly id="435189319" type="building.apartments" color="255,230,230" fill="1" layer="-1.00" shape="470.768671,1103.851356 470.800085,1096.725775 496.070450,1096.859077 496.039124,1103.973592 470.768671,1103.851356"/>
    <poly id="435189320" type="building.yes" color="255,230,230" fill="1" layer="-1.00" shape="481.449195,1076.235563 481.278184,1087.476254 471.066182,1087.333636 471.237279,1076.081879 481.449195,1076.235563"/>
    <poly id="435189321" type="amenity.fast_food" color="237,199,199" fill="1" layer="-1.00" shape="471.105287,1022.294268 471.119769,1033.481021 474.124030,1036.513109 483.618513,1036.506529 483.594076,1022.276847 471.105287,1022.294268"/>
    <poly id="435189321#1" type="building.yes" color="255,230,230" fill="1" layer="-1.00" shape="471.105287,1022.294268 471.119769,1033.481021 474.124030,1036.513109 483.618513,1036.506529 483.594076,1022.276847 471.105287,1022.294268"/>
    <poly id="435189322" type="building.commercial" color="255,230,230" fill="1" layer="-1.00" shape="428.068436,1074.276898 428.082741,1085.485781 409.050269,1085.487518 409.046776,1074.289779 428.068436,1074.276898"/>
    <poly id="435189323" type="building.yes" color="255,230,230" fill="1" layer="-1.00" shape="359.581625,1037.892947 364.204107,1032.726951 369.233911,1037.168362 364.611430,1042.334359 359.581625,1037.892947"/>
    <poly id="435189323#1" type="shop.yes" color="237,199,255" fill="1" layer="-1.00" shape="359.581625,1037.892947 364.204107,1032.726951 369.233911,1037.168362 364.611430,1042.334359 359.581625,1037.892947"/>
    <poly id="435190889" type="amenity.fast_food" color="237,199,199" fill="1" layer="-1.00" shape="471.195164,978.167995 471.177299,967.434879 493.225934,967.400306 493.243807,978.133421 471.195164,978.167995"/>
    <poly id="435190889#1" type="building.yes" color="255,230,230" fill="1" layer="-1.00" shape="471.195164,978.167995 471.177299,967.434879 493.225934,967.400306 493.243807,978.133421 471.195164,978.167995"/>
    <poly id="435190890" type="amenity.restaurant" color="237,199,199" fill="1" layer="-1.00" shape="470.538569,959.651464 470.537918,943.695829 476.417484,943.695463 476.421480,940.243235 481.440934,940.236447 481.438508,943.478454 488.232621,943.484913 488.231711,959.650769 470.538569,959.651464"/>
    <poly id="435190890#1" type="building.yes" color="255,230,230" fill="1" layer="-1.00" shape="470.538569,959.651464 470.537918,943.695829 476.417484,943.695463 476.421480,940.243235 481.440934,940.236447 481.438508,943.478454 488.232621,943.484913 488.231711,959.650769 470.538569,959.651464"/>
    <poly id="435190891" type="amenity.restaurant" color="237,199,199" fill="1" layer="-1.00" shape="470.672822,909.583653 470.853929,918.868482 487.700633,918.485265 487.519026,909.266822 470.672822,909.583653"/>
    <poly id="435190891#1" type="building.yes" color="255,230,230" fill="1" layer="-1.00" shape="470.672822,909.583653 470.853929,918.868482 487.700633,918.485265 487.519026,909.266822 470.672822,909.583653"/>
    <poly id="435190892" type="amenity.restaurant" color="237,199,199" fill="1" layer="-1.00" shape="470.672822,909.583653 470.499051,900.774670 487.345333,900.446776 487.519026,909.266822 470.672822,909.583653"/>
    <poly id="435190892#1" type="building.yes" color="255,230,230" fill="1" layer="-1.00" shape="470.672822,909.583653 470.499051,900.774670 487.345333,900.446776 487.519026,909.266822 470.672822,909.583653"/>
    <poly id="435190894" type="building.yes" color="255,230,230" fill="1" layer="-1.00" shape="471.148994,893.930330 470.991398,884.413312 484.113006,884.212522 484.270688,893.718474 471.148994,893.930330"/>
    <poly id="435190894#1" type="shop.dry_cleaning" color="237,199,255" fill="1" layer="-1.00" shape="471.148994,893.930330 470.991398,884.413312 484.113006,884.212522 484.270688,893.718474 471.148994,893.930330"/>
    <poly id="435190895" type="building.commercial" color="255,230,230" fill="1" layer="-1.00" shape="469.977942,864.112661 469.861750,854.883640 486.260712,854.674125 486.376909,863.903145 469.977942,864.112661"/>
    <poly id="435190896" type="amenity.fuel" color="237,199,199" fill="1" layer="-1.00" shape="449.758808,856.824814 449.621147,830.057713 452.201716,830.043787 452.339380,856.810888 449.758808,856.824814"/>
    <poly id="435190897" type="building.commercial" color="255,230,230" fill="1" layer="-1.00" shape="368.935324,788.514849 368.747923,756.757075 369.232879,726.818972 428.374378,727.105808 428.215589,789.189974 416.201143,778.190222 405.729516,789.497833 368.935324,788.514849"/>
    <poly id="435191544" type="building.yes" color="255,230,230" fill="1" layer="-1.00" shape="368.935324,788.514849 349.031132,788.631718 348.843753,756.873939 368.747923,756.757075 368.935324,788.514849"/>
    <poly id="435191544#1" type="tourism.hotel" color="207,245,201" fill="1" layer="-2.00" shape="368.935324,788.514849 349.031132,788.631718 348.843753,756.873939 368.747923,756.757075 368.935324,788.514849"/>
    <poly id="435670926" type="building.commercial" color="255,230,230" fill="1" layer="-1.00" shape="1189.185088,783.842474 1193.977279,785.106342 1200.133583,784.488264 1205.354873,782.225625 1213.401633,776.299403 1217.177985,776.537738 1218.005663,763.343489 1211.084101,762.915775 1207.062978,764.844335 1205.186261,760.990854 1201.471136,762.766782 1199.522692,761.236392 1194.348231,761.596218 1189.694074,763.730298 1186.462374,766.383949 1184.454458,771.381399 1184.139042,777.188117 1186.335626,781.951302 1189.185088,783.842474"/>
    <poly id="435670927" type="building.yes" color="255,230,230" fill="1" layer="-1.00" shape="1168.984766,787.188634 1169.252596,767.295958 1156.374242,767.011997 1143.908042,766.941331 1143.629307,786.833928 1168.984766,787.188634"/>
    <poly id="435670928" type="building.yes" color="255,230,230" fill="1" layer="-1.00" shape="1111.222683,784.446090 1111.451563,775.640140 1115.610374,775.693232 1115.640949,773.048951 1121.084552,773.100542 1121.058344,775.158417 1124.694561,775.207617 1124.450432,784.599892 1111.222683,784.446090"/>
    <poly id="435670929" type="building.apartments" color="255,230,230" fill="1" layer="-1.00" shape="1059.654732,787.702473 1059.821223,772.655455 1081.878548,772.886093 1081.712068,787.933109 1059.654732,787.702473"/>
    <poly id="435670930" type="building.apartments" color="255,230,230" fill="1" layer="-1.00" shape="1046.163726,1004.208392 1046.226201,1017.752287 1033.127426,1017.809661 1033.123777,1015.375357 1028.626924,1015.386132 1028.582231,1006.766245 1032.610921,1006.751985 1032.607684,1004.262360 1046.163726,1004.208392"/>
    <poly id="435670931" type="building.yes" color="255,230,230" fill="1" layer="-1.00" shape="1038.303087,1064.088394 1038.414178,1053.555442 1047.341664,1053.655109 1049.677789,1055.763767 1049.582272,1064.205570 1038.303087,1064.088394"/>
    <poly id="435670931#1" type="shop.yes" color="237,199,255" fill="1" layer="-1.00" shape="1038.303087,1064.088394 1038.414178,1053.555442 1047.341664,1053.655109 1049.677789,1055.763767 1049.582272,1064.205570 1038.303087,1064.088394"/>
    <poly id="435680647" type="building.apartments" color="255,230,230" fill="1" layer="-1.00" shape="1048.311687,1112.018579 1048.146207,1126.932823 1027.917716,1126.715823 1028.072319,1111.801496 1048.311687,1112.018579"/>
    <poly id="435680651" type="building.residential" color="255,230,230" fill="1" layer="-1.00" shape="1164.529699,1088.817495 1164.630316,1094.317492 1181.694300,1094.001872 1181.523189,1084.805680 1167.486508,1085.066372 1167.557078,1088.751504 1164.529699,1088.817495"/>
    <poly id="435680652" type="building.commercial" color="255,230,230" fill="1" layer="-1.00" shape="1169.096072,1075.075692 1170.122802,1057.080763 1174.145016,1053.547801 1177.254838,1057.034251 1176.203044,1075.471589 1169.096072,1075.075692"/>
    <poly id="435682725" type="amenity.restaurant" color="237,199,199" fill="1" layer="-1.00" shape="1181.046446,910.375273 1181.064298,919.680976 1185.245289,924.071655 1197.102598,924.038177 1197.073877,910.339636 1181.046446,910.375273"/>
    <poly id="435682725#1" type="building.yes" color="255,230,230" fill="1" layer="-1.00" shape="1181.046446,910.375273 1181.064298,919.680976 1185.245289,924.071655 1197.102598,924.038177 1197.073877,910.339636 1181.046446,910.375273"/>
    <poly id="435682726" type="amenity.restaurant" color="237,199,199" fill="1" layer="-1.00" shape="1040.012515,778.969837 1022.864730,778.864255 1022.902884,773.741492 1022.981041,755.938654 1040.150753,756.022271 1040.012515,778.969837"/>