<?xml version="1.0" encoding="UTF-8"?>

<!-- generated on 05/26/19 01:06:33 by Eclipse SUMO netedit Version 1.1.0
<configuration xmlns:xsi="http://www.w3.org/2001/XMLSchema-instance" xsi:noNamespaceSchemaLocation="http://sumo.dlr.de/xsd/netconvertConfiguration.xsd">

    <input>
        <sumo-net-file value="D:\Documentos\Andree\PUCP\2019-1\Proyecto\Miraflores%209%20intersections\Test%204%20-%20Actuated%20GP%20-%20Fixed%20test%204\data\osm.net.xml"/>
    </input>

    <output>
        <output-file value="D:\Documentos\Andree\PUCP\2019-1\Proyecto\Miraflores%209%20intersections\Test%204%20-%20Actuated%20GP%20-%20Fixed%20test%204\data\osm.net.xml"/>
        <output.street-names value="true"/>
    </output>

    <processing>
        <geometry.max-grade.fix value="false"/>
        <offset.disable-normalization value="true"/>
        <lefthand value="false"/>
    </processing>

    <junctions>
        <no-turnarounds value="true"/>
        <junctions.corner-detail value="5"/>
        <junctions.limit-turn-speed value="5.5"/>
        <rectangular-lane-cut value="false"/>
    </junctions>

    <pedestrian>
        <walkingareas value="false"/>
    </pedestrian>

</configuration>
-->

<net version="1.1" junctionCornerDetail="5" limitTurnSpeed="5.50" xmlns:xsi="http://www.w3.org/2001/XMLSchema-instance" xsi:noNamespaceSchemaLocation="http://sumo.dlr.de/xsd/net_file.xsd">

    <location netOffset="-277861.59,1341354.50" convBoundary="0.00,435.47,1299.56,1519.57" origBoundary="-77.041094,-12.126376,-77.029172,-12.112668" projParameter="+proj=utm +zone=18 +ellps=WGS84 +datum=WGS84 +units=m +no_defs"/>

    <type id="highway.bridleway" priority="1" numLanes="1" speed="2.78" allow="pedestrian" oneway="1" width="2.00"/>
    <type id="highway.bus_guideway" priority="1" numLanes="1" speed="27.78" allow="bus" oneway="1"/>
    <type id="highway.cycleway" priority="1" numLanes="1" speed="8.33" allow="bicycle" oneway="0" width="1.00"/>
    <type id="highway.footway" priority="1" numLanes="1" speed="2.78" allow="pedestrian" oneway="1" width="2.00"/>
    <type id="highway.ford" priority="1" numLanes="1" speed="2.78" allow="army" oneway="0"/>
    <type id="highway.living_street" priority="3" numLanes="1" speed="2.78" disallow="tram rail_urban rail rail_electric ship" oneway="0"/>
    <type id="highway.motorway" priority="13" numLanes="2" speed="44.44" allow="private emergency authority army vip passenger hov taxi bus coach delivery truck trailer motorcycle evehicle custom1 custom2" oneway="1"/>
    <type id="highway.motorway_link" priority="12" numLanes="1" speed="22.22" allow="private emergency authority army vip passenger hov taxi bus coach delivery truck trailer motorcycle evehicle custom1 custom2" oneway="1"/>
    <type id="highway.path" priority="1" numLanes="1" speed="2.78" allow="bicycle pedestrian" oneway="1" width="2.00"/>
    <type id="highway.pedestrian" priority="1" numLanes="1" speed="2.78" allow="pedestrian" oneway="1" width="2.00"/>
    <type id="highway.primary" priority="9" numLanes="2" speed="27.78" disallow="tram rail_urban rail rail_electric ship" oneway="0"/>
    <type id="highway.primary_link" priority="8" numLanes="1" speed="22.22" disallow="tram rail_urban rail rail_electric ship" oneway="0"/>
    <type id="highway.raceway" priority="14" numLanes="2" speed="83.33" allow="vip" oneway="0"/>
    <type id="highway.residential" priority="4" numLanes="1" speed="13.89" disallow="tram rail_urban rail rail_electric ship" oneway="0"/>
    <type id="highway.secondary" priority="7" numLanes="2" speed="27.78" disallow="tram rail_urban rail rail_electric ship" oneway="0"/>
    <type id="highway.secondary_link" priority="6" numLanes="1" speed="22.22" disallow="tram rail_urban rail rail_electric ship" oneway="0"/>
    <type id="highway.service" priority="2" numLanes="1" speed="5.56" allow="delivery bicycle pedestrian" oneway="0"/>
    <type id="highway.stairs" priority="1" numLanes="1" speed="1.39" allow="pedestrian" oneway="1" width="2.00"/>
    <type id="highway.step" priority="1" numLanes="1" speed="1.39" allow="pedestrian" oneway="1" width="2.00"/>
    <type id="highway.steps" priority="1" numLanes="1" speed="1.39" allow="pedestrian" oneway="1" width="2.00"/>
    <type id="highway.tertiary" priority="6" numLanes="1" speed="22.22" disallow="tram rail_urban rail rail_electric ship" oneway="0"/>
    <type id="highway.tertiary_link" priority="5" numLanes="1" speed="22.22" disallow="tram rail_urban rail rail_electric ship" oneway="0"/>
    <type id="highway.track" priority="1" numLanes="1" speed="5.56" disallow="tram rail_urban rail rail_electric ship" oneway="0"/>
    <type id="highway.trunk" priority="11" numLanes="2" speed="27.78" disallow="tram rail_urban rail rail_electric bicycle pedestrian ship" oneway="0"/>
    <type id="highway.trunk_link" priority="10" numLanes="1" speed="22.22" disallow="tram rail_urban rail rail_electric bicycle pedestrian ship" oneway="0"/>
    <type id="highway.unclassified" priority="5" numLanes="1" speed="13.89" disallow="tram rail_urban rail rail_electric ship" oneway="0"/>
    <type id="highway.unsurfaced" priority="1" numLanes="1" speed="8.33" disallow="tram rail_urban rail rail_electric ship" oneway="0"/>
    <type id="railway.light_rail" priority="15" numLanes="1" speed="27.78" allow="rail_urban" oneway="1"/>
    <type id="railway.preserved" priority="15" numLanes="1" speed="27.78" allow="rail" oneway="1"/>
    <type id="railway.rail" priority="15" numLanes="1" speed="83.33" allow="rail rail_electric" oneway="1"/>
    <type id="railway.subway" priority="15" numLanes="1" speed="27.78" allow="rail_urban" oneway="1"/>
    <type id="railway.tram" priority="15" numLanes="1" speed="13.89" allow="tram" oneway="1"/>

    <edge id=":108193635_0" function="internal">
        <lane id=":108193635_0_0" index="0" disallow="tram rail_urban rail rail_electric ship" speed="3.92" length="2.34" shape="1066.37,438.69 1065.94,438.22 1065.46,437.98 1064.92,437.97 1064.32,438.18"/>
    </edge>
    <edge id=":108193635_1" function="internal">
        <lane id=":108193635_1_0" index="0" disallow="tram rail_urban rail rail_electric ship" speed="6.10" length="7.03" shape="1069.00,436.86 1067.71,435.47 1066.26,434.75 1064.64,434.71 1062.85,435.34"/>
    </edge>
    <edge id=":138851475_0" function="internal">
        <lane id=":138851475_0_0" index="0" disallow="tram rail_urban rail rail_electric ship" speed="6.81" length="9.86" shape="1058.66,1053.46 1058.23,1050.98 1057.00,1049.19 1054.96,1048.11 1052.13,1047.74"/>
    </edge>
    <edge id=":138851475_1" function="internal">
        <lane id=":138851475_1_0" index="0" disallow="tram rail_urban rail rail_electric ship" speed="11.11" length="14.89" shape="1058.66,1053.46 1058.51,1049.73 1058.15,1046.04 1057.58,1042.37 1056.82,1038.71"/>
    </edge>
    <edge id=":138851475_2" function="internal">
        <lane id=":138851475_2_0" index="0" disallow="tram rail_urban rail rail_electric ship" speed="6.48" length="9.03" shape="1067.43,1047.83 1064.97,1048.17 1063.23,1049.22 1062.19,1050.97 1061.86,1053.43"/>
    </edge>
    <edge id=":138851475_3" function="internal">
        <lane id=":138851475_3_0" index="0" disallow="tram rail_urban rail rail_electric ship" speed="11.11" length="15.30" shape="1067.43,1047.83 1052.13,1047.74"/>
        <lane id=":138851475_3_1" index="1" disallow="tram rail_urban rail rail_electric ship" speed="11.11" length="15.30" shape="1067.44,1044.63 1052.15,1044.54"/>
    </edge>
    <edge id=":138851475_5" function="internal">
        <lane id=":138851475_5_0" index="0" disallow="tram rail_urban rail rail_electric ship" speed="8.46" length="13.16" shape="1067.44,1044.63 1063.30,1044.25 1060.16,1043.13 1058.00,1041.29 1056.82,1038.71"/>
    </edge>
    <edge id=":138851475_6" function="internal">
        <lane id=":138851475_6_0" index="0" disallow="tram rail_urban rail rail_electric ship" speed="11.11" length="15.58" shape="1059.94,1037.99 1060.71,1041.76 1061.30,1045.66 1061.70,1049.59 1061.86,1053.43"/>
    </edge>
    <edge id=":138851475_7" function="internal">
        <lane id=":138851475_7_0" index="0" disallow="tram rail_urban rail rail_electric ship" speed="6.92" length="12.20" shape="1059.94,1037.99 1060.03,1040.88 1058.76,1042.94 1056.13,1044.16 1052.15,1044.54"/>
    </edge>
    <edge id=":138851476_0" function="internal">
        <lane id=":138851476_0_0" index="0" disallow="tram rail_urban rail rail_electric ship" speed="6.50" length="9.04" shape="940.84,1052.52 940.49,1050.07 939.43,1048.32 937.68,1047.27 935.22,1046.94"/>
    </edge>
    <edge id=":138851476_1" function="internal">
        <lane id=":138851476_1_0" index="0" disallow="tram rail_urban rail rail_electric ship" speed="11.11" length="14.42" shape="940.84,1052.52 940.80,1038.11"/>
    </edge>
    <edge id=":138851476_2" function="internal">
        <lane id=":138851476_2_0" index="0" disallow="tram rail_urban rail rail_electric ship" speed="6.49" length="9.03" shape="949.65,1046.95 947.19,1047.28 945.44,1048.32 944.39,1050.06 944.04,1052.52"/>
    </edge>
    <edge id=":138851476_3" function="internal">
        <lane id=":138851476_3_0" index="0" disallow="tram rail_urban rail rail_electric ship" speed="11.11" length="14.45" shape="949.65,1046.95 935.22,1046.94"/>
        <lane id=":138851476_3_1" index="1" disallow="tram rail_urban rail rail_electric ship" speed="11.11" length="14.45" shape="949.67,1043.75 935.20,1043.74"/>
    </edge>
    <edge id=":138851476_5" function="internal">
        <lane id=":138851476_5_0" index="0" disallow="tram rail_urban rail rail_electric ship" speed="7.37" length="11.78" shape="949.67,1043.75 945.80,1043.37 943.03,1042.30 941.36,1040.55 940.80,1038.11"/>
    </edge>
    <edge id=":138851476_6" function="internal">
        <lane id=":138851476_6_0" index="0" disallow="tram rail_urban rail rail_electric ship" speed="11.11" length="14.42" shape="944.00,1038.09 944.04,1052.52"/>
    </edge>
    <edge id=":138851476_7" function="internal">
        <lane id=":138851476_7_0" index="0" disallow="tram rail_urban rail rail_electric ship" speed="8.01" length="5.93" shape="944.00,1038.09 943.47,1041.94 942.42,1043.70"/>
    </edge>
    <edge id=":138851476_8" function="internal">
        <lane id=":138851476_8_0" index="0" disallow="tram rail_urban rail rail_electric ship" speed="8.01" length="8.27" shape="942.42,1043.70 941.82,1044.70 939.08,1046.36 935.22,1046.94"/>
    </edge>
    <edge id=":138851478_0" function="internal">
        <lane id=":138851478_0_0" index="0" disallow="tram rail_urban rail rail_electric ship" speed="6.64" length="9.26" shape="834.06,1047.62 831.58,1048.00 829.78,1049.08 828.68,1050.88 828.27,1053.38"/>
    </edge>
    <edge id=":138851478_1" function="internal">
        <lane id=":138851478_1_0" index="0" disallow="tram rail_urban rail rail_electric ship" speed="11.11" length="14.50" shape="834.06,1047.62 819.56,1047.69"/>
        <lane id=":138851478_1_1" index="1" disallow="tram rail_urban rail rail_electric ship" speed="11.11" length="14.50" shape="834.04,1044.42 819.55,1044.49"/>
    </edge>
    <edge id=":138851478_3" function="internal">
        <lane id=":138851478_3_0" index="0" disallow="tram rail_urban rail rail_electric ship" speed="7.31" length="11.74" shape="834.04,1044.42 830.19,1044.10 827.44,1043.06 825.78,1041.31 825.24,1038.84"/>
    </edge>
    <edge id=":138851478_4" function="internal">
        <lane id=":138851478_4_0" index="0" disallow="tram rail_urban rail rail_electric ship" speed="11.11" length="14.54" shape="828.44,1038.85 828.27,1053.38"/>
    </edge>
    <edge id=":138851478_5" function="internal">
        <lane id=":138851478_5_0" index="0" disallow="tram rail_urban rail rail_electric ship" speed="7.36" length="11.82" shape="828.44,1038.85 827.88,1041.31 826.21,1043.07 823.43,1044.13 819.55,1044.49"/>
    </edge>
    <edge id=":138851478_6" function="internal">
        <lane id=":138851478_6_0" index="0" disallow="tram rail_urban rail rail_electric ship" speed="6.45" length="9.03" shape="825.07,1053.31 824.77,1050.85 823.76,1049.09 822.02,1048.04 819.56,1047.69"/>
    </edge>
    <edge id=":138851478_7" function="internal">
        <lane id=":138851478_7_0" index="0" disallow="tram rail_urban rail rail_electric ship" speed="11.11" length="14.47" shape="825.07,1053.31 825.24,1038.84"/>
    </edge>
    <edge id=":138851479_0" function="internal">
        <lane id=":138851479_0_0" index="0" disallow="tram rail_urban rail rail_electric ship" speed="11.11" length="14.46" shape="698.55,1048.03 684.10,1048.12"/>
        <lane id=":138851479_0_1" index="1" disallow="tram rail_urban rail rail_electric ship" speed="11.11" length="14.46" shape="698.54,1044.83 684.07,1044.92"/>
    </edge>
    <edge id=":138851479_2" function="internal">
        <lane id=":138851479_2_0" index="0" disallow="tram rail_urban rail rail_electric ship" speed="6.51" length="9.03" shape="698.54,1044.83 696.09,1044.49 694.33,1043.44 693.28,1041.69 692.93,1039.24"/>
    </edge>
    <edge id=":138851479_3" function="internal">
        <lane id=":138851479_3_0" index="0" disallow="tram rail_urban rail rail_electric ship" speed="6.47" length="9.03" shape="689.69,1053.69 689.35,1051.23 688.31,1049.49 686.56,1048.45 684.10,1048.12"/>
    </edge>
    <edge id=":138851479_4" function="internal">
        <lane id=":138851479_4_0" index="0" disallow="tram rail_urban rail rail_electric ship" speed="11.11" length="14.46" shape="689.69,1053.69 689.73,1039.25"/>
        <lane id=":138851479_4_1" index="1" disallow="tram rail_urban rail rail_electric ship" speed="11.11" length="14.46" shape="692.89,1053.72 692.93,1039.24"/>
    </edge>
    <edge id=":138851481_0" function="internal">
        <lane id=":138851481_0_0" index="0" disallow="tram rail_urban rail rail_electric ship" speed="6.52" length="9.05" shape="583.90,1049.09 581.44,1049.47 579.69,1050.53 578.65,1052.29 578.32,1054.74"/>
    </edge>
    <edge id=":138851481_1" function="internal">
        <lane id=":138851481_1_0" index="0" disallow="tram rail_urban rail rail_electric ship" speed="11.11" length="17.61" shape="583.90,1049.09 566.28,1049.23"/>
        <lane id=":138851481_1_1" index="1" disallow="tram rail_urban rail rail_electric ship" speed="11.11" length="17.61" shape="583.87,1045.89 566.27,1046.03"/>
    </edge>
    <edge id=":138851481_3" function="internal">
        <lane id=":138851481_3_0" index="0" disallow="tram rail_urban rail rail_electric ship" speed="11.11" length="14.42" shape="578.26,1040.34 578.32,1054.74"/>
        <lane id=":138851481_3_1" index="1" disallow="tram rail_urban rail rail_electric ship" speed="11.11" length="14.42" shape="575.06,1040.34 575.12,1054.77"/>
        <lane id=":138851481_3_2" index="2" disallow="tram rail_urban rail rail_electric ship" speed="11.11" length="14.42" shape="571.86,1040.34 571.92,1054.79"/>
    </edge>
    <edge id=":138851481_6" function="internal">
        <lane id=":138851481_6_0" index="0" disallow="tram rail_urban rail rail_electric ship" speed="6.54" length="9.08" shape="571.86,1040.34 571.51,1042.82 570.46,1044.59 568.71,1045.66 566.27,1046.03"/>
    </edge>
    <edge id=":138852140_0" function="internal">
        <lane id=":138852140_0_0" index="0" disallow="tram rail_urban rail rail_electric ship" speed="6.45" length="9.03" shape="802.69,794.76 802.97,797.23 803.99,798.99 805.72,800.05 808.18,800.41"/>
    </edge>
    <edge id=":138852140_1" function="internal">
        <lane id=":138852140_1_0" index="0" disallow="tram rail_urban rail rail_electric ship" speed="16.67" length="11.18" shape="796.99,800.44 808.18,800.41"/>
        <lane id=":138852140_1_1" index="1" disallow="tram rail_urban rail rail_electric ship" speed="16.67" length="11.18" shape="797.01,803.64 808.18,803.61"/>
    </edge>
    <edge id=":138852224_0" function="internal">
        <lane id=":138852224_0_0" index="0" disallow="tram rail_urban rail rail_electric ship" speed="6.92" length="10.30" shape="440.40,1028.83 439.91,1026.40 438.54,1024.67 436.29,1023.66 433.16,1023.35"/>
    </edge>
    <edge id=":138852224_1" function="internal">
        <lane id=":138852224_1_0" index="0" disallow="tram rail_urban rail rail_electric ship" speed="7.66" length="12.86" shape="440.40,1028.83 439.89,1025.00 438.50,1022.27 436.24,1020.66 433.12,1020.15"/>
    </edge>
    <edge id=":138852224_2" function="internal">
        <lane id=":138852224_2_0" index="0" disallow="tram rail_urban rail rail_electric ship" speed="22.23" length="14.38" shape="440.40,1028.83 440.08,1024.57 439.49,1021.68 438.92,1018.79 438.67,1014.53"/>
        <lane id=":138852224_2_1" index="1" disallow="tram rail_urban rail rail_electric ship" speed="22.23" length="14.38" shape="443.60,1028.77 443.28,1024.52 442.69,1021.65 442.12,1018.77 441.87,1014.53"/>
        <lane id=":138852224_2_2" index="2" disallow="tram rail_urban rail rail_electric ship" speed="22.23" length="14.38" shape="443.60,1028.77 443.78,1024.53 444.29,1021.65 444.82,1018.77 445.07,1014.53"/>
    </edge>
    <edge id=":138854734_0" function="internal">
        <lane id=":138854734_0_0" index="0" disallow="tram rail_urban rail rail_electric ship" speed="6.52" length="9.05" shape="578.34,925.41 578.69,927.87 579.75,929.62 581.50,930.68 583.95,931.03"/>
    </edge>
    <edge id=":138854734_1" function="internal">
        <lane id=":138854734_1_0" index="0" disallow="tram rail_urban rail rail_electric ship" speed="11.11" length="14.39" shape="578.34,925.41 578.35,939.81"/>
        <lane id=":138854734_1_1" index="1" disallow="tram rail_urban rail rail_electric ship" speed="11.11" length="14.39" shape="575.14,925.42 575.15,939.80"/>
        <lane id=":138854734_1_2" index="2" disallow="tram rail_urban rail rail_electric ship" speed="11.11" length="14.39" shape="571.94,925.43 571.95,939.80"/>
    </edge>
    <edge id=":138854734_4" function="internal">
        <lane id=":138854734_4_0" index="0" disallow="tram rail_urban rail rail_electric ship" speed="11.11" length="17.58" shape="566.37,931.01 583.95,931.03"/>
        <lane id=":138854734_4_1" index="1" disallow="tram rail_urban rail rail_electric ship" speed="11.11" length="17.58" shape="566.36,934.21 583.94,934.23"/>
    </edge>
    <edge id=":138854734_6" function="internal">
        <lane id=":138854734_6_0" index="0" disallow="tram rail_urban rail rail_electric ship" speed="7.32" length="11.71" shape="566.36,934.21 570.21,934.56 572.96,935.61 574.60,937.36 575.15,939.80"/>
    </edge>
    <edge id=":138854734_7" function="internal">
        <lane id=":138854734_7_0" index="0" disallow="tram rail_urban rail rail_electric ship" speed="6.50" length="9.02" shape="566.36,934.21 568.81,934.56 570.56,935.61 571.60,937.36 571.95,939.80"/>
    </edge>
    <edge id=":138854735_0" function="internal">
        <lane id=":138854735_0_0" index="0" disallow="tram rail_urban rail rail_electric ship" speed="11.11" length="14.44" shape="689.52,939.97 689.40,925.55"/>
        <lane id=":138854735_0_1" index="1" disallow="tram rail_urban rail rail_electric ship" speed="11.11" length="14.44" shape="692.72,939.97 692.60,925.50"/>
    </edge>
    <edge id=":138854735_2" function="internal">
        <lane id=":138854735_2_0" index="0" disallow="tram rail_urban rail rail_electric ship" speed="6.52" length="9.03" shape="692.72,939.97 693.07,937.51 694.11,935.76 695.86,934.70 698.31,934.33"/>
    </edge>
    <edge id=":138854735_3" function="internal">
        <lane id=":138854735_3_0" index="0" disallow="tram rail_urban rail rail_electric ship" speed="6.47" length="9.03" shape="683.86,931.17 686.31,930.82 688.06,929.77 689.09,928.01 689.40,925.55"/>
    </edge>
    <edge id=":138854735_4" function="internal">
        <lane id=":138854735_4_0" index="0" disallow="tram rail_urban rail rail_electric ship" speed="11.11" length="14.44" shape="683.86,931.17 698.28,931.13"/>
        <lane id=":138854735_4_1" index="1" disallow="tram rail_urban rail rail_electric ship" speed="11.11" length="14.44" shape="683.85,934.37 698.31,934.33"/>
    </edge>
    <edge id=":138854736_0" function="internal">
        <lane id=":138854736_0_0" index="0" disallow="tram rail_urban rail rail_electric ship" speed="11.11" length="14.45" shape="825.32,939.09 825.13,924.64"/>
    </edge>
    <edge id=":138854736_1" function="internal">
        <lane id=":138854736_1_0" index="0" disallow="tram rail_urban rail rail_electric ship" speed="7.31" length="11.74" shape="825.32,939.09 825.88,936.63 827.53,934.88 830.29,933.85 834.14,933.54"/>
    </edge>
    <edge id=":138854736_2" function="internal">
        <lane id=":138854736_2_0" index="0" disallow="tram rail_urban rail rail_electric ship" speed="6.68" length="9.30" shape="828.33,924.55 828.76,927.06 829.87,928.86 831.68,929.95 834.18,930.34"/>
    </edge>
    <edge id=":138854736_3" function="internal">
        <lane id=":138854736_3_0" index="0" disallow="tram rail_urban rail rail_electric ship" speed="11.11" length="14.54" shape="828.33,924.55 828.52,939.09"/>
    </edge>
    <edge id=":138854736_4" function="internal">
        <lane id=":138854736_4_0" index="0" disallow="tram rail_urban rail rail_electric ship" speed="6.46" length="9.03" shape="819.65,930.31 822.11,929.94 823.84,928.87 824.85,927.11 825.13,924.64"/>
    </edge>
    <edge id=":138854736_5" function="internal">
        <lane id=":138854736_5_0" index="0" disallow="tram rail_urban rail rail_electric ship" speed="11.11" length="14.50" shape="819.65,930.31 834.18,930.34"/>
        <lane id=":138854736_5_1" index="1" disallow="tram rail_urban rail rail_electric ship" speed="11.11" length="14.50" shape="819.67,933.51 834.14,933.54"/>
    </edge>
    <edge id=":138854736_7" function="internal">
        <lane id=":138854736_7_0" index="0" disallow="tram rail_urban rail rail_electric ship" speed="7.32" length="11.78" shape="819.67,933.51 823.55,933.84 826.31,934.88 827.97,936.63 828.52,939.09"/>
    </edge>
    <edge id=":138854737_0" function="internal">
        <lane id=":138854737_0_0" index="0" disallow="tram rail_urban rail rail_electric ship" speed="11.11" length="14.48" shape="940.43,940.33 940.31,925.85"/>
    </edge>
    <edge id=":138854737_1" function="internal">
        <lane id=":138854737_1_0" index="0" disallow="tram rail_urban rail rail_electric ship" speed="7.32" length="11.73" shape="940.43,940.33 940.97,937.87 942.61,936.12 945.36,935.07 949.21,934.72"/>
    </edge>
    <edge id=":138854737_2" function="internal">
        <lane id=":138854737_2_0" index="0" disallow="tram rail_urban rail rail_electric ship" speed="6.59" length="9.18" shape="943.51,925.81 943.89,928.31 944.97,930.09 946.75,931.16 949.22,931.52"/>
    </edge>
    <edge id=":138854737_3" function="internal">
        <lane id=":138854737_3_0" index="0" disallow="tram rail_urban rail rail_electric ship" speed="11.11" length="14.51" shape="943.51,925.81 943.63,940.32"/>
    </edge>
    <edge id=":138854737_4" function="internal">
        <lane id=":138854737_4_0" index="0" disallow="tram rail_urban rail rail_electric ship" speed="6.46" length="9.03" shape="934.74,931.43 937.20,931.11 938.95,930.07 939.99,928.32 940.31,925.85"/>
    </edge>
    <edge id=":138854737_5" function="internal">
        <lane id=":138854737_5_0" index="0" disallow="tram rail_urban rail rail_electric ship" speed="11.11" length="14.49" shape="934.74,931.43 949.22,931.52"/>
        <lane id=":138854737_5_1" index="1" disallow="tram rail_urban rail rail_electric ship" speed="11.11" length="14.49" shape="934.71,934.63 949.21,934.72"/>
    </edge>
    <edge id=":138854737_7" function="internal">
        <lane id=":138854737_7_0" index="0" disallow="tram rail_urban rail rail_electric ship" speed="7.40" length="11.85" shape="934.71,934.63 938.60,935.02 941.39,936.10 943.06,937.87 943.63,940.32"/>
    </edge>
    <edge id=":138854739_0" function="internal">
        <lane id=":138854739_0_0" index="0" disallow="tram rail_urban rail rail_electric ship" speed="11.11" length="14.44" shape="1056.10,940.46 1056.17,926.02"/>
    </edge>
    <edge id=":138854739_1" function="internal">
        <lane id=":138854739_1_0" index="0" disallow="tram rail_urban rail rail_electric ship" speed="7.32" length="11.74" shape="1056.10,940.46 1056.65,938.00 1058.30,936.25 1061.06,935.21 1064.92,934.87"/>
    </edge>
    <edge id=":138854739_2" function="internal">
        <lane id=":138854739_2_0" index="0" disallow="tram rail_urban rail rail_electric ship" speed="6.49" length="9.03" shape="1059.37,926.04 1059.69,928.50 1060.73,930.26 1062.47,931.31 1064.92,931.67"/>
    </edge>
    <edge id=":138854739_3" function="internal">
        <lane id=":138854739_3_0" index="0" disallow="tram rail_urban rail rail_electric ship" speed="11.11" length="14.41" shape="1059.37,926.04 1059.30,940.46"/>
    </edge>
    <edge id=":138854739_4" function="internal">
        <lane id=":138854739_4_0" index="0" disallow="tram rail_urban rail rail_electric ship" speed="6.54" length="9.08" shape="1050.51,931.64 1052.96,931.29 1054.72,930.24 1055.79,928.48 1056.17,926.02"/>
    </edge>
    <edge id=":138854739_5" function="internal">
        <lane id=":138854739_5_0" index="0" disallow="tram rail_urban rail rail_electric ship" speed="11.11" length="14.42" shape="1050.51,931.64 1064.92,931.67"/>
        <lane id=":138854739_5_1" index="1" disallow="tram rail_urban rail rail_electric ship" speed="11.11" length="14.42" shape="1050.50,934.84 1064.92,934.87"/>
    </edge>
    <edge id=":138854739_7" function="internal">
        <lane id=":138854739_7_0" index="0" disallow="tram rail_urban rail rail_electric ship" speed="7.33" length="11.73" shape="1050.50,934.84 1054.35,935.20 1057.10,936.25 1058.75,938.00 1059.30,940.46"/>
    </edge>
    <edge id=":1431652375_0" function="internal">
        <lane id=":1431652375_0_0" index="0" disallow="tram rail_urban rail rail_electric ship" speed="8.33" length="5.08" shape="1185.13,683.13 1185.62,678.02"/>
        <lane id=":1431652375_0_1" index="1" disallow="tram rail_urban rail rail_electric ship" speed="8.33" length="5.08" shape="1188.32,683.39 1188.80,678.37"/>
    </edge>
    <edge id=":197656584_0" function="internal">
        <lane id=":197656584_0_0" index="0" speed="13.89" length="14.43" shape="565.26,567.57 579.70,567.38"/>
        <lane id=":197656584_0_1" index="1" speed="13.89" length="14.43" shape="565.31,570.77 579.73,570.58"/>
    </edge>
    <edge id=":197656584_2" function="internal">
        <lane id=":197656584_2_0" index="0" disallow="tram rail_urban rail rail_electric ship" speed="7.32" length="11.74" shape="565.31,570.77 569.17,571.05 571.94,572.06 573.61,573.78 574.19,576.24"/>
    </edge>
    <edge id=":197656584_3" function="internal">
        <lane id=":197656584_3_0" index="0" disallow="tram rail_urban rail rail_electric ship" speed="6.50" length="9.03" shape="565.31,570.77 567.77,571.08 569.54,572.10 570.61,573.83 570.99,576.28"/>
    </edge>
    <edge id=":197657720_0" function="internal">
        <lane id=":197657720_0_0" index="0" speed="13.89" length="14.38" shape="681.76,566.46 696.16,566.40"/>
        <lane id=":197657720_0_1" index="1" speed="13.89" length="14.38" shape="681.79,569.66 696.16,569.60"/>
    </edge>
    <edge id=":197657720_2" function="internal">
        <lane id=":197657720_2_0" index="0" speed="8.02" length="14.19" shape="687.36,575.21 687.93,571.36 689.58,568.60 692.33,566.95 696.16,566.40"/>
    </edge>
    <edge id=":197657720_3" function="internal">
        <lane id=":197657720_3_0" index="0" speed="6.53" length="9.05" shape="690.56,575.23 690.92,572.77 691.97,571.01 693.72,569.95 696.16,569.60"/>
    </edge>
    <edge id=":197658845_0" function="internal">
        <lane id=":197658845_0_0" index="0" disallow="tram rail_urban rail rail_electric ship" speed="6.53" length="9.02" shape="686.81,694.12 686.43,691.68 685.36,689.93 683.62,688.89 681.18,688.54"/>
    </edge>
    <edge id=":197658845_1" function="internal">
        <lane id=":197658845_1_0" index="0" disallow="tram rail_urban rail rail_electric ship" speed="8.02" length="14.13" shape="690.01,694.08 689.41,690.25 687.74,687.52 685.00,685.88 681.18,685.34"/>
    </edge>
    <edge id=":197658845_2" function="internal">
        <lane id=":197658845_2_0" index="0" disallow="tram rail_urban rail rail_electric ship" speed="8.33" length="14.83" shape="690.01,694.08 689.45,689.77 688.33,686.91 687.23,684.04 686.75,679.73"/>
    </edge>
    <edge id=":197658845_3" function="internal">
        <lane id=":197658845_3_0" index="0" disallow="tram rail_urban rail rail_electric ship" speed="11.11" length="14.32" shape="695.51,688.48 681.18,688.54"/>
        <lane id=":197658845_3_1" index="1" disallow="tram rail_urban rail rail_electric ship" speed="11.11" length="14.32" shape="695.49,685.28 681.18,685.34"/>
    </edge>
    <edge id=":197658845_5" function="internal">
        <lane id=":197658845_5_0" index="0" disallow="tram rail_urban rail rail_electric ship" speed="6.46" length="8.95" shape="695.49,685.28 693.05,684.95 691.32,683.92 690.29,682.18 689.95,679.75"/>
    </edge>
    <edge id=":197659537_0" function="internal">
        <lane id=":197659537_0_0" index="0" disallow="tram rail_urban rail rail_electric ship" speed="6.45" length="9.03" shape="802.77,569.60 805.23,569.95 806.96,571.01 807.98,572.77 808.27,575.24"/>
    </edge>
    <edge id=":197660046_0" function="internal">
        <lane id=":197660046_0_0" index="0" speed="13.89" length="14.32" shape="451.54,569.54 465.83,569.40"/>
        <lane id=":197660046_0_1" index="1" speed="13.89" length="14.32" shape="451.55,572.74 465.89,572.60"/>
    </edge>
    <edge id=":197660046_2" function="internal">
        <lane id=":197660046_2_0" index="0" disallow="tram rail_urban rail rail_electric ship" speed="7.33" length="11.70" shape="451.55,572.74 455.39,573.08 458.14,574.12 459.79,575.86 460.35,578.30"/>
    </edge>
    <edge id=":197660046_3" function="internal">